Version 4
SHEET 1 4128 2836
WIRE 768 -336 768 -400
WIRE 1104 -336 1104 -400
WIRE 2160 -336 2160 -400
WIRE 2496 -336 2496 -400
WIRE 3504 -336 3504 -400
WIRE 3840 -336 3840 -400
WIRE 112 -320 112 -384
WIRE 448 -320 448 -384
WIRE 1504 -320 1504 -384
WIRE 1840 -320 1840 -384
WIRE 2848 -320 2848 -384
WIRE 3184 -320 3184 -384
WIRE 768 -224 768 -272
WIRE 1104 -224 1104 -272
WIRE 2160 -224 2160 -272
WIRE 2496 -224 2496 -272
WIRE 3504 -224 3504 -272
WIRE 3840 -224 3840 -272
WIRE 112 -208 112 -256
WIRE 448 -208 448 -256
WIRE 1504 -208 1504 -256
WIRE 1840 -208 1840 -256
WIRE 2848 -208 2848 -256
WIRE 3184 -208 3184 -256
WIRE 704 -176 640 -176
WIRE 1040 -176 976 -176
WIRE 2096 -176 2032 -176
WIRE 2432 -176 2368 -176
WIRE 3440 -176 3376 -176
WIRE 3776 -176 3712 -176
WIRE 48 -160 -16 -160
WIRE 384 -160 320 -160
WIRE 1440 -160 1376 -160
WIRE 1776 -160 1712 -160
WIRE 2784 -160 2720 -160
WIRE 3120 -160 3056 -160
WIRE 640 -128 640 -176
WIRE 976 -128 976 -176
WIRE 2032 -128 2032 -176
WIRE 2368 -128 2368 -176
WIRE 3376 -128 3376 -176
WIRE 3712 -128 3712 -176
WIRE -16 -112 -16 -160
WIRE 320 -112 320 -160
WIRE 1376 -112 1376 -160
WIRE 1712 -112 1712 -160
WIRE 2720 -112 2720 -160
WIRE 3056 -112 3056 -160
WIRE 768 -96 768 -128
WIRE 1104 -96 1104 -128
WIRE 2160 -96 2160 -128
WIRE 2496 -96 2496 -128
WIRE 3504 -96 3504 -128
WIRE 3840 -96 3840 -128
WIRE 112 -80 112 -112
WIRE 448 -80 448 -112
WIRE 1504 -80 1504 -112
WIRE 1840 -80 1840 -112
WIRE 2848 -80 2848 -112
WIRE 3184 -80 3184 -112
WIRE 3760 288 528 288
WIRE 432 320 288 320
WIRE 608 320 432 320
WIRE 944 320 608 320
WIRE 1264 320 944 320
WIRE 1584 320 1264 320
WIRE 1904 320 1584 320
WIRE 2224 320 1904 320
WIRE 2544 320 2224 320
WIRE 2864 320 2544 320
WIRE 3184 320 2864 320
WIRE 3504 320 3184 320
WIRE 608 352 608 320
WIRE 944 352 944 320
WIRE 1264 352 1264 320
WIRE 1584 352 1584 320
WIRE 1904 352 1904 320
WIRE 2224 352 2224 320
WIRE 2544 352 2544 320
WIRE 2864 352 2864 320
WIRE 3184 352 3184 320
WIRE 3504 352 3504 320
WIRE -560 432 -560 384
WIRE 528 464 528 288
WIRE 544 464 528 464
WIRE 608 464 608 432
WIRE 624 464 608 464
WIRE 656 464 624 464
WIRE 880 464 720 464
WIRE 944 464 944 432
WIRE 960 464 944 464
WIRE 992 464 960 464
WIRE 1200 464 1056 464
WIRE 1264 464 1264 432
WIRE 1280 464 1264 464
WIRE 1312 464 1280 464
WIRE 1520 464 1376 464
WIRE 1584 464 1584 432
WIRE 1616 464 1584 464
WIRE 1632 464 1616 464
WIRE 1840 464 1696 464
WIRE 1904 464 1904 432
WIRE 1952 464 1904 464
WIRE 2160 464 2016 464
WIRE 2224 464 2224 432
WIRE 2272 464 2224 464
WIRE 2480 464 2336 464
WIRE 2544 464 2544 432
WIRE 2592 464 2544 464
WIRE 2800 464 2656 464
WIRE 2864 464 2864 432
WIRE 2912 464 2864 464
WIRE 3120 464 2976 464
WIRE 3184 464 3184 432
WIRE 3232 464 3184 464
WIRE 3440 464 3296 464
WIRE 3504 464 3504 432
WIRE 3536 464 3504 464
WIRE 3552 464 3536 464
WIRE 3760 464 3760 288
WIRE 3760 464 3616 464
WIRE -864 480 -864 464
WIRE -752 480 -752 464
WIRE -752 480 -864 480
WIRE -672 480 -752 480
WIRE -624 480 -672 480
WIRE 288 496 288 320
WIRE 608 496 608 464
WIRE 944 496 944 464
WIRE 1264 496 1264 464
WIRE 1584 496 1584 464
WIRE 1904 496 1904 464
WIRE 2224 496 2224 464
WIRE 2544 496 2544 464
WIRE 2864 496 2864 464
WIRE 3184 496 3184 464
WIRE 3504 496 3504 464
WIRE -752 544 -752 480
WIRE -672 544 -672 480
WIRE -48 544 -48 528
WIRE -16 544 -48 544
WIRE 64 544 48 544
WIRE 176 544 144 544
WIRE 224 544 176 544
WIRE -48 560 -48 544
WIRE -560 576 -560 528
WIRE -512 576 -560 576
WIRE 176 576 176 544
WIRE 544 576 544 464
WIRE 560 576 544 576
WIRE 608 576 608 560
WIRE 608 576 560 576
WIRE 880 576 880 464
WIRE 896 576 880 576
WIRE 944 576 944 560
WIRE 944 576 896 576
WIRE 1200 576 1200 464
WIRE 1216 576 1200 576
WIRE 1264 576 1264 560
WIRE 1264 576 1216 576
WIRE 1520 576 1520 464
WIRE 1536 576 1520 576
WIRE 1584 576 1584 560
WIRE 1584 576 1536 576
WIRE 1840 576 1840 464
WIRE 1856 576 1840 576
WIRE 1904 576 1904 560
WIRE 1904 576 1856 576
WIRE 2160 576 2160 464
WIRE 2176 576 2160 576
WIRE 2224 576 2224 560
WIRE 2224 576 2176 576
WIRE 2480 576 2480 464
WIRE 2496 576 2480 576
WIRE 2544 576 2544 560
WIRE 2544 576 2496 576
WIRE 2800 576 2800 464
WIRE 2816 576 2800 576
WIRE 2864 576 2864 560
WIRE 2864 576 2816 576
WIRE 3120 576 3120 464
WIRE 3136 576 3120 576
WIRE 3184 576 3184 560
WIRE 3184 576 3136 576
WIRE 3440 576 3440 464
WIRE 3456 576 3440 576
WIRE 3504 576 3504 560
WIRE 3504 576 3456 576
WIRE -560 592 -560 576
WIRE 608 592 608 576
WIRE 944 592 944 576
WIRE 1264 592 1264 576
WIRE 1584 592 1584 576
WIRE 1904 592 1904 576
WIRE 2224 592 2224 576
WIRE 2544 592 2544 576
WIRE 2864 592 2864 576
WIRE 3184 592 3184 576
WIRE 3504 592 3504 576
WIRE -672 624 -672 608
WIRE 688 640 672 640
WIRE 704 640 688 640
WIRE 816 640 784 640
WIRE 1024 640 1008 640
WIRE 1040 640 1024 640
WIRE 1152 640 1120 640
WIRE 1344 640 1328 640
WIRE 1360 640 1344 640
WIRE 1472 640 1440 640
WIRE 1664 640 1648 640
WIRE 1680 640 1664 640
WIRE 1792 640 1760 640
WIRE 1984 640 1968 640
WIRE 2000 640 1984 640
WIRE 2112 640 2080 640
WIRE 2304 640 2288 640
WIRE 2320 640 2304 640
WIRE 2432 640 2400 640
WIRE 2624 640 2608 640
WIRE 2640 640 2624 640
WIRE 2752 640 2720 640
WIRE 2944 640 2928 640
WIRE 2960 640 2944 640
WIRE 3072 640 3040 640
WIRE 3264 640 3248 640
WIRE 3280 640 3264 640
WIRE 3392 640 3360 640
WIRE 3584 640 3568 640
WIRE 3600 640 3584 640
WIRE 3712 640 3680 640
WIRE 288 656 288 592
WIRE -560 688 -560 672
WIRE 688 688 688 640
WIRE 1024 688 1024 640
WIRE 1344 688 1344 640
WIRE 1664 688 1664 640
WIRE 1984 688 1984 640
WIRE 2304 688 2304 640
WIRE 2624 688 2624 640
WIRE 2944 688 2944 640
WIRE 3264 688 3264 640
WIRE 3584 688 3584 640
WIRE 608 736 608 688
WIRE 608 736 576 736
WIRE 624 736 608 736
WIRE 944 736 944 688
WIRE 944 736 912 736
WIRE 960 736 944 736
WIRE 1264 736 1264 688
WIRE 1264 736 1232 736
WIRE 1280 736 1264 736
WIRE 1584 736 1584 688
WIRE 1584 736 1552 736
WIRE 1600 736 1584 736
WIRE 1904 736 1904 688
WIRE 1904 736 1872 736
WIRE 1920 736 1904 736
WIRE 2224 736 2224 688
WIRE 2224 736 2192 736
WIRE 2240 736 2224 736
WIRE 2544 736 2544 688
WIRE 2544 736 2512 736
WIRE 2560 736 2544 736
WIRE 2864 736 2864 688
WIRE 2864 736 2832 736
WIRE 2880 736 2864 736
WIRE 3184 736 3184 688
WIRE 3184 736 3152 736
WIRE 3200 736 3184 736
WIRE 3504 736 3504 688
WIRE 3504 736 3472 736
WIRE 3520 736 3504 736
WIRE 576 752 576 736
WIRE 912 752 912 736
WIRE 1232 752 1232 736
WIRE 1552 752 1552 736
WIRE 1872 752 1872 736
WIRE 2192 752 2192 736
WIRE 2512 752 2512 736
WIRE 2832 752 2832 736
WIRE 3152 752 3152 736
WIRE 3472 752 3472 736
WIRE 672 832 576 832
WIRE 688 832 688 784
WIRE 688 832 672 832
WIRE 1008 832 912 832
WIRE 1024 832 1024 784
WIRE 1024 832 1008 832
WIRE 1328 832 1232 832
WIRE 1344 832 1344 784
WIRE 1344 832 1328 832
WIRE 1648 832 1552 832
WIRE 1664 832 1664 784
WIRE 1664 832 1648 832
WIRE 1968 832 1872 832
WIRE 1984 832 1984 784
WIRE 1984 832 1968 832
WIRE 2288 832 2192 832
WIRE 2304 832 2304 784
WIRE 2304 832 2288 832
WIRE 2608 832 2512 832
WIRE 2624 832 2624 784
WIRE 2624 832 2608 832
WIRE 2928 832 2832 832
WIRE 2944 832 2944 784
WIRE 2944 832 2928 832
WIRE 3248 832 3152 832
WIRE 3264 832 3264 784
WIRE 3264 832 3248 832
WIRE 3568 832 3472 832
WIRE 3584 832 3584 784
WIRE 3584 832 3568 832
WIRE 128 1168 48 1168
WIRE 48 1248 48 1168
WIRE 128 1248 48 1248
WIRE 48 1328 48 1248
WIRE 128 1328 48 1328
WIRE 48 1408 48 1328
WIRE 128 1408 48 1408
WIRE 960 1424 816 1424
WIRE 1120 1424 1040 1424
WIRE 816 1456 816 1424
WIRE 48 1488 48 1408
WIRE 128 1488 48 1488
WIRE 3968 1504 3136 1504
WIRE 3200 1552 2816 1552
WIRE 3536 1552 3200 1552
WIRE 3856 1552 3536 1552
WIRE 48 1568 48 1488
WIRE 128 1568 48 1568
WIRE 3200 1584 3200 1552
WIRE 3536 1584 3536 1552
WIRE 3856 1584 3856 1552
WIRE 960 1600 816 1600
WIRE 1120 1600 1040 1600
WIRE 816 1632 816 1600
WIRE 48 1648 48 1568
WIRE 128 1648 48 1648
WIRE 3200 1696 3200 1664
WIRE 3232 1696 3200 1696
WIRE 3248 1696 3232 1696
WIRE 3360 1696 3312 1696
WIRE 3472 1696 3360 1696
WIRE 3536 1696 3536 1664
WIRE 3568 1696 3536 1696
WIRE 3584 1696 3568 1696
WIRE 3696 1696 3648 1696
WIRE 3792 1696 3696 1696
WIRE 3856 1696 3856 1664
WIRE 3888 1696 3856 1696
WIRE 3904 1696 3888 1696
WIRE 3968 1696 3968 1504
WIRE 48 1728 48 1648
WIRE 128 1728 48 1728
WIRE 3200 1728 3200 1696
WIRE 3536 1728 3536 1696
WIRE 3856 1728 3856 1696
WIRE -384 1760 -384 1744
WIRE 2816 1760 2816 1552
WIRE 944 1776 816 1776
WIRE 48 1808 48 1728
WIRE 128 1808 48 1808
WIRE 816 1808 816 1776
WIRE 2528 1808 2496 1808
WIRE 2544 1808 2528 1808
WIRE 2704 1808 2688 1808
WIRE 2752 1808 2704 1808
WIRE 3136 1808 3136 1504
WIRE 3200 1808 3200 1792
WIRE 3200 1808 3136 1808
WIRE 3472 1808 3472 1696
WIRE 3536 1808 3536 1792
WIRE 3536 1808 3472 1808
WIRE 3792 1808 3792 1696
WIRE 3856 1808 3856 1792
WIRE 3856 1808 3792 1808
WIRE -272 1824 -272 1744
WIRE 3200 1824 3200 1808
WIRE 3536 1824 3536 1808
WIRE 3856 1824 3856 1808
WIRE -384 1872 -384 1840
WIRE -336 1872 -384 1872
WIRE 2816 1872 2816 1856
WIRE 3280 1872 3264 1872
WIRE 3296 1872 3280 1872
WIRE 3408 1872 3376 1872
WIRE 3616 1872 3600 1872
WIRE 3632 1872 3616 1872
WIRE 3744 1872 3712 1872
WIRE 3936 1872 3920 1872
WIRE 3952 1872 3936 1872
WIRE 4064 1872 4032 1872
WIRE 48 1888 48 1808
WIRE -384 1920 -384 1872
WIRE 3280 1920 3280 1872
WIRE 3616 1920 3616 1872
WIRE 3936 1920 3936 1872
WIRE -272 1936 -272 1920
WIRE -176 1936 -272 1936
WIRE -16 1936 -96 1936
WIRE 3200 1968 3200 1920
WIRE 3200 1968 3168 1968
WIRE 3216 1968 3200 1968
WIRE 3536 1968 3536 1920
WIRE 3536 1968 3504 1968
WIRE 3552 1968 3536 1968
WIRE 3856 1968 3856 1920
WIRE 3856 1968 3824 1968
WIRE 3872 1968 3856 1968
WIRE 3168 1984 3168 1968
WIRE 3504 1984 3504 1968
WIRE 3824 1984 3824 1968
WIRE 48 2016 48 1984
WIRE -384 2064 -384 2000
WIRE 3264 2064 3168 2064
WIRE 3280 2064 3280 2016
WIRE 3280 2064 3264 2064
WIRE 3600 2064 3504 2064
WIRE 3616 2064 3616 2016
WIRE 3616 2064 3600 2064
WIRE 3920 2064 3824 2064
WIRE 3936 2064 3936 2016
WIRE 3936 2064 3920 2064
WIRE -544 2112 -720 2112
WIRE -448 2112 -464 2112
WIRE -384 2192 -384 2160
WIRE -384 2192 -400 2192
WIRE -560 2240 -720 2240
WIRE -464 2240 -480 2240
WIRE -400 2352 -400 2288
FLAG -864 624 VCC
FLAG -864 704 0
FLAG -560 384 VCC
FLAG -560 688 0
FLAG -752 624 0
FLAG -752 384 VCC
FLAG -672 624 0
FLAG -512 576 Vref
FLAG 640 -48 0
FLAG 768 -16 0
FLAG 768 -400 Vd
FLAG -1008 704 0
FLAG -1008 624 Vd
FLAG 576 -176 O3
FLAG -48 640 0
FLAG 176 656 0
FLAG 288 656 0
FLAG 288 320 CLK
FLAG 576 912 0
FLAG 816 640 Vref
FLAG 912 912 0
FLAG 1152 640 Vref
FLAG 1232 912 0
FLAG 1472 640 Vref
FLAG 560 576 S1
FLAG 896 576 S2
FLAG 1216 576 S3
FLAG 672 832 O1
FLAG 1008 832 O2
FLAG 1328 832 O3
FLAG 624 464 T1
FLAG 960 464 T2
FLAG 1280 464 T3
FLAG 432 240 VCC
FLAG -864 384 VCC
FLAG 1552 912 0
FLAG 1792 640 Vref
FLAG 1648 832 O4
FLAG 1872 912 0
FLAG 2112 640 Vref
FLAG 1968 832 O5
FLAG 2192 912 0
FLAG 2432 640 Vref
FLAG 2288 832 O6
FLAG 2512 912 0
FLAG 2752 640 Vref
FLAG 2608 832 O7
FLAG 2832 912 0
FLAG 3072 640 Vref
FLAG 2928 832 O8
FLAG 3152 912 0
FLAG 3392 640 Vref
FLAG 3248 832 O9
FLAG 3472 912 0
FLAG 3712 640 Vref
FLAG 3568 832 O0
FLAG 48 1088 VCC
FLAG 3168 2144 0
FLAG 3408 1872 Vref
FLAG 3504 2144 0
FLAG 3744 1872 Vref
FLAG 3824 2144 0
FLAG 4064 1872 Vref
FLAG 3264 2064 Oh0
FLAG 3600 2064 Oh1
FLAG 3920 2064 Oh2
FLAG 2752 1872 0
FLAG 2816 1872 0
FLAG 2816 1472 VCC
FLAG -48 528 src_clk
FLAG 2528 1808 O0
FLAG 3232 1696 Sh0
FLAG 3360 1696 Th1
FLAG 816 1536 0
FLAG 1040 1488 0
FLAG 1120 1424 Units
FLAG 816 1712 0
FLAG 1040 1664 0
FLAG 1120 1600 Tens
FLAG 816 1888 0
FLAG 944 1776 Tot
FLAG 2704 1888 0
FLAG 192 1168 S1
FLAG 192 1328 S3
FLAG 192 1408 S4
FLAG 192 1488 S5
FLAG 192 1568 S6
FLAG 192 1648 S7
FLAG 192 1728 S8
FLAG 192 1808 S9
FLAG -720 2240 Oh2
FLAG -400 2352 0
FLAG -720 2112 O4
FLAG 3696 1696 Th2
FLAG 3968 1504 Th0
FLAG 3568 1696 Sh1
FLAG 3888 1696 Sh2
FLAG 1536 576 S4
FLAG 1856 576 S5
FLAG 2176 576 S6
FLAG 2496 576 S7
FLAG 2816 576 S8
FLAG 3136 576 S9
FLAG 3456 576 S0
FLAG 3536 464 T0
FLAG 1616 464 T4
FLAG 1952 464 T5
FLAG 192 1248 S2
FLAG 976 -48 0
FLAG 1104 -16 0
FLAG 1104 -400 Vd
FLAG 912 -176 O4
FLAG -16 -32 0
FLAG 112 0 0
FLAG 112 -384 Vd
FLAG -80 -160 O1
FLAG 320 -32 0
FLAG 448 0 0
FLAG 448 -384 Vd
FLAG 256 -160 O2
FLAG 2032 -48 0
FLAG 2160 -16 0
FLAG 2160 -400 Vd
FLAG 1968 -176 O7
FLAG 2368 -48 0
FLAG 2496 -16 0
FLAG 2496 -400 Vd
FLAG 2304 -176 O8
FLAG 1376 -32 0
FLAG 1504 0 0
FLAG 1504 -384 Vd
FLAG 1312 -160 O5
FLAG 1712 -32 0
FLAG 1840 0 0
FLAG 1840 -384 Vd
FLAG 1648 -160 O6
FLAG 3376 -48 0
FLAG 3504 -16 0
FLAG 3504 -400 Vd
FLAG 3312 -176 Oh2
FLAG 3712 -48 0
FLAG 3840 -16 0
FLAG 3840 -400 Vd
FLAG 3648 -176 O0
FLAG 2720 -32 0
FLAG 2848 0 0
FLAG 2848 -384 Vd
FLAG 2656 -160 O9
FLAG 3056 -32 0
FLAG 3184 0 0
FLAG 3184 -384 Vd
FLAG 2992 -160 Oh1
FLAG 48 2016 0
FLAG -384 1744 VCC
FLAG -272 1744 VCC
SYMBOL voltage -864 608 R0
WINDOW 123 0 0 Left 0
WINDOW 39 0 0 Left 0
SYMATTR InstName V2
SYMATTR Value 12
SYMBOL npn -624 432 R0
SYMATTR InstName Q3
SYMATTR Value 2N3904
SYMBOL res -576 576 R0
SYMATTR InstName R6
SYMATTR Value 10k
SYMBOL cap -688 544 R0
SYMATTR InstName C3
SYMATTR Value 100n
SYMBOL res -768 528 R0
SYMATTR InstName R7
SYMATTR Value 10k
SYMBOL res -768 368 R0
SYMATTR InstName R8
SYMATTR Value 3k9
SYMBOL LED 752 -336 R0
SYMATTR InstName D1
SYMATTR Value LXHL-BW02
SYMATTR Description Diode
SYMATTR Type diode
SYMATTR Value2 N=10
SYMBOL npn 704 -224 R0
SYMATTR InstName Q1
SYMATTR Value 2N5550
SYMBOL res 752 -112 R0
SYMATTR InstName R1
SYMATTR Value 10k
SYMBOL res 624 -144 R0
SYMATTR InstName R2
SYMATTR Value 100k
SYMBOL voltage -1008 608 R0
WINDOW 123 0 0 Left 0
WINDOW 39 0 0 Left 0
SYMATTR InstName V1
SYMATTR Value 80
SYMBOL diode 576 -160 R270
WINDOW 0 32 32 VTop 2
WINDOW 3 0 32 VBottom 2
SYMATTR InstName D2
SYMATTR Value 1N4148
SYMBOL voltage -48 544 R0
WINDOW 123 0 0 Left 0
WINDOW 39 0 0 Left 0
WINDOW 3 -19 164 Left 2
SYMATTR Value PULSE(0 12 0 1n 1n 10m 20m)
SYMATTR InstName V3
SYMBOL res 160 528 R90
WINDOW 0 0 56 VBottom 2
WINDOW 3 32 56 VTop 2
SYMATTR InstName R3
SYMATTR Value 10k
SYMBOL res 192 672 R180
WINDOW 0 36 76 Left 2
WINDOW 3 36 40 Left 2
SYMATTR InstName R4
SYMATTR Value 10k
SYMBOL npn 224 496 R0
SYMATTR InstName Q2
SYMATTR Value 2N3904
SYMBOL res 592 336 R0
SYMATTR InstName R5
SYMATTR Value {Rrst}
SYMBOL cap 720 448 R90
WINDOW 0 0 32 VBottom 2
WINDOW 3 32 32 VTop 2
SYMATTR InstName C1
SYMATTR Value 1n
SYMBOL diode 592 496 R0
SYMATTR InstName D3
SYMATTR Value 1N4148
SYMBOL pnp 672 688 R180
SYMATTR InstName Q4
SYMATTR Value 2N3906
SYMBOL npn 624 688 R0
SYMATTR InstName Q5
SYMATTR Value 2N3904
SYMBOL res 560 816 R0
SYMATTR InstName R9
SYMATTR Value {Rbot}
SYMBOL res 560 736 R0
SYMATTR InstName R10
SYMATTR Value {Rb}
SYMBOL res 800 624 R90
WINDOW 0 0 56 VBottom 2
WINDOW 3 32 56 VTop 2
SYMATTR InstName R11
SYMATTR Value {Rvref}
SYMBOL res 928 336 R0
SYMATTR InstName R12
SYMATTR Value {Rrst}
SYMBOL cap 1056 448 R90
WINDOW 0 0 32 VBottom 2
WINDOW 3 32 32 VTop 2
SYMATTR InstName C2
SYMATTR Value {Cn}
SYMBOL diode 928 496 R0
SYMATTR InstName D4
SYMATTR Value 1N4148
SYMBOL pnp 1008 688 R180
SYMATTR InstName Q6
SYMATTR Value 2N3906
SYMBOL npn 960 688 R0
SYMATTR InstName Q7
SYMATTR Value 2N3904
SYMBOL res 896 816 R0
SYMATTR InstName R13
SYMATTR Value {Rbot}
SYMBOL res 896 736 R0
SYMATTR InstName R14
SYMATTR Value {Rb}
SYMBOL res 1136 624 R90
WINDOW 0 0 56 VBottom 2
WINDOW 3 32 56 VTop 2
SYMATTR InstName R15
SYMATTR Value {Rvref}
SYMBOL res 1248 336 R0
SYMATTR InstName R16
SYMATTR Value {Rrst}
SYMBOL cap 1376 448 R90
WINDOW 0 0 32 VBottom 2
WINDOW 3 32 32 VTop 2
SYMATTR InstName C4
SYMATTR Value {Cn}
SYMBOL diode 1248 496 R0
SYMATTR InstName D5
SYMATTR Value 1N4148
SYMBOL pnp 1328 688 R180
SYMATTR InstName Q8
SYMATTR Value 2N3906
SYMBOL npn 1280 688 R0
SYMATTR InstName Q9
SYMATTR Value 2N3904
SYMBOL res 1216 816 R0
SYMATTR InstName R17
SYMATTR Value {Rbot}
SYMBOL res 1216 736 R0
SYMATTR InstName R18
SYMATTR Value {Rb}
SYMBOL res 1456 624 R90
WINDOW 0 0 56 VBottom 2
WINDOW 3 32 56 VTop 2
SYMATTR InstName R19
SYMATTR Value {Rvref}
SYMBOL res 416 224 R0
SYMATTR InstName R20
SYMATTR Value 2k2
SYMBOL res -880 368 R0
SYMATTR InstName R21
SYMATTR Value {LDR}
SYMBOL diode 192 1152 R90
WINDOW 0 0 32 VBottom 2
WINDOW 3 32 32 VTop 2
SYMATTR InstName D6
SYMATTR Value 1N4148
SYMBOL res 32 1072 R0
SYMATTR InstName R22
SYMATTR Value 2k2
SYMBOL res 1568 336 R0
SYMATTR InstName R23
SYMATTR Value {Rrst}
SYMBOL cap 1696 448 R90
WINDOW 0 0 32 VBottom 2
WINDOW 3 32 32 VTop 2
SYMATTR InstName C5
SYMATTR Value {Cn}
SYMBOL diode 1568 496 R0
SYMATTR InstName D7
SYMATTR Value 1N4148
SYMBOL pnp 1648 688 R180
SYMATTR InstName Q10
SYMATTR Value 2N3906
SYMBOL npn 1600 688 R0
SYMATTR InstName Q11
SYMATTR Value 2N3904
SYMBOL res 1536 816 R0
SYMATTR InstName R24
SYMATTR Value {Rbot}
SYMBOL res 1536 736 R0
SYMATTR InstName R25
SYMATTR Value {Rb}
SYMBOL res 1776 624 R90
WINDOW 0 0 56 VBottom 2
WINDOW 3 32 56 VTop 2
SYMATTR InstName R26
SYMATTR Value {Rvref}
SYMBOL res 1888 336 R0
SYMATTR InstName R27
SYMATTR Value {Rrst}
SYMBOL cap 2016 448 R90
WINDOW 0 0 32 VBottom 2
WINDOW 3 32 32 VTop 2
SYMATTR InstName C6
SYMATTR Value {Cn}
SYMBOL diode 1888 496 R0
SYMATTR InstName D8
SYMATTR Value 1N4148
SYMBOL pnp 1968 688 R180
SYMATTR InstName Q12
SYMATTR Value 2N3906
SYMBOL npn 1920 688 R0
SYMATTR InstName Q13
SYMATTR Value 2N3904
SYMBOL res 1856 816 R0
SYMATTR InstName R28
SYMATTR Value {Rbot}
SYMBOL res 1856 736 R0
SYMATTR InstName R29
SYMATTR Value {Rb}
SYMBOL res 2096 624 R90
WINDOW 0 0 56 VBottom 2
WINDOW 3 32 56 VTop 2
SYMATTR InstName R30
SYMATTR Value {Rvref}
SYMBOL res 2208 336 R0
SYMATTR InstName R31
SYMATTR Value {Rrst}
SYMBOL cap 2336 448 R90
WINDOW 0 0 32 VBottom 2
WINDOW 3 32 32 VTop 2
SYMATTR InstName C7
SYMATTR Value {Cn}
SYMBOL diode 2208 496 R0
SYMATTR InstName D9
SYMATTR Value 1N4148
SYMBOL pnp 2288 688 R180
SYMATTR InstName Q14
SYMATTR Value 2N3906
SYMBOL npn 2240 688 R0
SYMATTR InstName Q15
SYMATTR Value 2N3904
SYMBOL res 2176 816 R0
SYMATTR InstName R32
SYMATTR Value {Rbot}
SYMBOL res 2176 736 R0
SYMATTR InstName R33
SYMATTR Value {Rb}
SYMBOL res 2416 624 R90
WINDOW 0 0 56 VBottom 2
WINDOW 3 32 56 VTop 2
SYMATTR InstName R34
SYMATTR Value {Rvref}
SYMBOL res 2528 336 R0
SYMATTR InstName R35
SYMATTR Value {Rrst}
SYMBOL cap 2656 448 R90
WINDOW 0 0 32 VBottom 2
WINDOW 3 32 32 VTop 2
SYMATTR InstName C8
SYMATTR Value {Cn}
SYMBOL diode 2528 496 R0
SYMATTR InstName D10
SYMATTR Value 1N4148
SYMBOL pnp 2608 688 R180
SYMATTR InstName Q16
SYMATTR Value 2N3906
SYMBOL npn 2560 688 R0
SYMATTR InstName Q17
SYMATTR Value 2N3904
SYMBOL res 2496 816 R0
SYMATTR InstName R36
SYMATTR Value {Rbot}
SYMBOL res 2496 736 R0
SYMATTR InstName R37
SYMATTR Value {Rb}
SYMBOL res 2736 624 R90
WINDOW 0 0 56 VBottom 2
WINDOW 3 32 56 VTop 2
SYMATTR InstName R38
SYMATTR Value {Rvref}
SYMBOL res 2848 336 R0
SYMATTR InstName R39
SYMATTR Value {Rrst}
SYMBOL cap 2976 448 R90
WINDOW 0 0 32 VBottom 2
WINDOW 3 32 32 VTop 2
SYMATTR InstName C9
SYMATTR Value {Cn}
SYMBOL diode 2848 496 R0
SYMATTR InstName D11
SYMATTR Value 1N4148
SYMBOL pnp 2928 688 R180
SYMATTR InstName Q18
SYMATTR Value 2N3906
SYMBOL npn 2880 688 R0
SYMATTR InstName Q19
SYMATTR Value 2N3904
SYMBOL res 2816 816 R0
SYMATTR InstName R40
SYMATTR Value {Rbot}
SYMBOL res 2816 736 R0
SYMATTR InstName R41
SYMATTR Value {Rb}
SYMBOL res 3056 624 R90
WINDOW 0 0 56 VBottom 2
WINDOW 3 32 56 VTop 2
SYMATTR InstName R42
SYMATTR Value {Rvref}
SYMBOL res 3168 336 R0
SYMATTR InstName R43
SYMATTR Value {Rrst}
SYMBOL cap 3296 448 R90
WINDOW 0 0 32 VBottom 2
WINDOW 3 32 32 VTop 2
SYMATTR InstName C10
SYMATTR Value {Cn}
SYMBOL diode 3168 496 R0
SYMATTR InstName D12
SYMATTR Value 1N4148
SYMBOL pnp 3248 688 R180
SYMATTR InstName Q20
SYMATTR Value 2N3906
SYMBOL npn 3200 688 R0
SYMATTR InstName Q21
SYMATTR Value 2N3904
SYMBOL res 3136 816 R0
SYMATTR InstName R44
SYMATTR Value {Rbot}
SYMBOL res 3136 736 R0
SYMATTR InstName R45
SYMATTR Value {Rb}
SYMBOL res 3376 624 R90
WINDOW 0 0 56 VBottom 2
WINDOW 3 32 56 VTop 2
SYMATTR InstName R46
SYMATTR Value {Rvref}
SYMBOL res 3488 336 R0
SYMATTR InstName R47
SYMATTR Value {Rrst}
SYMBOL cap 3616 448 R90
WINDOW 0 0 32 VBottom 2
WINDOW 3 32 32 VTop 2
SYMATTR InstName C11
SYMATTR Value {Cn}
SYMBOL diode 3488 496 R0
SYMATTR InstName D13
SYMATTR Value 1N4148
SYMBOL pnp 3568 688 R180
SYMATTR InstName Q22
SYMATTR Value 2N3906
SYMBOL npn 3520 688 R0
SYMATTR InstName Q23
SYMATTR Value 2N3904
SYMBOL res 3456 816 R0
SYMATTR InstName R48
SYMATTR Value {Rbot}
SYMBOL res 3456 736 R0
SYMATTR InstName R49
SYMATTR Value {Rb}
SYMBOL res 3696 624 R90
WINDOW 0 0 56 VBottom 2
WINDOW 3 32 56 VTop 2
SYMATTR InstName R50
SYMATTR Value {Rvref}
SYMBOL res 3184 1568 R0
SYMATTR InstName R53
SYMATTR Value {Rrst}
SYMBOL cap 3312 1680 R90
WINDOW 0 0 32 VBottom 2
WINDOW 3 32 32 VTop 2
SYMATTR InstName C12
SYMATTR Value {Cn}
SYMBOL diode 3184 1728 R0
SYMATTR InstName D14
SYMATTR Value 1N4148
SYMBOL pnp 3264 1920 R180
SYMATTR InstName Q25
SYMATTR Value 2N3906
SYMBOL npn 3216 1920 R0
SYMATTR InstName Q26
SYMATTR Value 2N3904
SYMBOL res 3152 2048 R0
SYMATTR InstName R54
SYMATTR Value {Rbot}
SYMBOL res 3152 1968 R0
SYMATTR InstName R55
SYMATTR Value {Rb}
SYMBOL res 3392 1856 R90
WINDOW 0 0 56 VBottom 2
WINDOW 3 32 56 VTop 2
SYMATTR InstName R56
SYMATTR Value {Rvref}
SYMBOL res 3520 1568 R0
SYMATTR InstName R57
SYMATTR Value {Rrst}
SYMBOL cap 3648 1680 R90
WINDOW 0 0 32 VBottom 2
WINDOW 3 32 32 VTop 2
SYMATTR InstName C13
SYMATTR Value {Cn}
SYMBOL diode 3520 1728 R0
SYMATTR InstName D15
SYMATTR Value 1N4148
SYMBOL pnp 3600 1920 R180
SYMATTR InstName Q27
SYMATTR Value 2N3906
SYMBOL npn 3552 1920 R0
SYMATTR InstName Q28
SYMATTR Value 2N3904
SYMBOL res 3488 2048 R0
SYMATTR InstName R58
SYMATTR Value {Rbot}
SYMBOL res 3488 1968 R0
SYMATTR InstName R59
SYMATTR Value {Rb}
SYMBOL res 3728 1856 R90
WINDOW 0 0 56 VBottom 2
WINDOW 3 32 56 VTop 2
SYMATTR InstName R60
SYMATTR Value {Rvref}
SYMBOL res 3840 1568 R0
SYMATTR InstName R61
SYMATTR Value {Rrst}
SYMBOL cap 3968 1680 R90
WINDOW 0 0 32 VBottom 2
WINDOW 3 32 32 VTop 2
SYMATTR InstName C14
SYMATTR Value {Cn}
SYMBOL diode 3840 1728 R0
SYMATTR InstName D16
SYMATTR Value 1N4148
SYMBOL pnp 3920 1920 R180
SYMATTR InstName Q29
SYMATTR Value 2N3906
SYMBOL npn 3872 1920 R0
SYMATTR InstName Q30
SYMATTR Value 2N3904
SYMBOL res 3808 2048 R0
SYMATTR InstName R62
SYMATTR Value {Rbot}
SYMBOL res 3808 1968 R0
SYMATTR InstName R63
SYMATTR Value {Rb}
SYMBOL res 4048 1856 R90
WINDOW 0 0 56 VBottom 2
WINDOW 3 32 56 VTop 2
SYMATTR InstName R64
SYMATTR Value {Rvref}
SYMBOL cap 2608 1792 R90
WINDOW 0 0 32 VBottom 2
WINDOW 3 32 32 VTop 2
SYMATTR InstName C15
SYMATTR Value 2n
SYMBOL res 2704 1792 R90
WINDOW 0 0 56 VBottom 2
WINDOW 3 32 56 VTop 2
SYMATTR InstName R65
SYMATTR Value 1k
SYMBOL diode 2768 1872 R180
WINDOW 0 24 64 Left 2
WINDOW 3 24 0 Left 2
SYMATTR InstName D17
SYMATTR Value 1N4148
SYMBOL npn 2752 1760 R0
SYMATTR InstName Q31
SYMATTR Value 2N3904
SYMBOL res 2800 1456 R0
SYMATTR InstName R66
SYMATTR Value 2k2
SYMBOL bv 816 1440 R0
SYMATTR InstName B1
SYMATTR Value V=(V(O1)*1+V(O2)*2+V(O3)*3+V(O4)*4+V(O5)*5+V(O6)*6+V(O7)*7+V(O8)*8+V(O9)*9)/3.83
SYMBOL res 1056 1408 R90
WINDOW 0 0 56 VBottom 2
WINDOW 3 32 56 VTop 2
SYMATTR InstName R67
SYMATTR Value 1k
SYMBOL cap 1024 1424 R0
SYMATTR InstName C16
SYMATTR Value 10n
SYMBOL bv 816 1616 R0
SYMATTR InstName B2
SYMATTR Value V=(V(Oh1)*1+V(Oh2)*2)/3.83*10
SYMBOL res 1056 1584 R90
WINDOW 0 0 56 VBottom 2
WINDOW 3 32 56 VTop 2
SYMATTR InstName R68
SYMATTR Value 1k
SYMBOL cap 1024 1600 R0
SYMATTR InstName C17
SYMATTR Value 10n
SYMBOL bv 816 1792 R0
SYMATTR InstName B3
SYMATTR Value V=V(Units)+V(Tens)
SYMBOL res 2688 1792 R0
SYMATTR InstName R69
SYMATTR Value 10k
SYMBOL cap 48 528 R90
WINDOW 0 0 32 VBottom 2
WINDOW 3 32 32 VTop 2
SYMATTR InstName C18
SYMATTR Value 22n
SYMBOL diode 192 1232 R90
WINDOW 0 0 32 VBottom 2
WINDOW 3 32 32 VTop 2
SYMATTR InstName D18
SYMATTR Value 1N4148
SYMBOL diode 192 1312 R90
WINDOW 0 0 32 VBottom 2
WINDOW 3 32 32 VTop 2
SYMATTR InstName D19
SYMATTR Value 1N4148
SYMBOL diode 192 1392 R90
WINDOW 0 0 32 VBottom 2
WINDOW 3 32 32 VTop 2
SYMATTR InstName D20
SYMATTR Value 1N4148
SYMBOL diode 192 1472 R90
WINDOW 0 0 32 VBottom 2
WINDOW 3 32 32 VTop 2
SYMATTR InstName D21
SYMATTR Value 1N4148
SYMBOL diode 192 1552 R90
WINDOW 0 0 32 VBottom 2
WINDOW 3 32 32 VTop 2
SYMATTR InstName D22
SYMATTR Value 1N4148
SYMBOL diode 192 1632 R90
WINDOW 0 0 32 VBottom 2
WINDOW 3 32 32 VTop 2
SYMATTR InstName D23
SYMATTR Value 1N4148
SYMBOL diode 192 1712 R90
WINDOW 0 0 32 VBottom 2
WINDOW 3 32 32 VTop 2
SYMATTR InstName D24
SYMATTR Value 1N4148
SYMBOL diode 192 1792 R90
WINDOW 0 0 32 VBottom 2
WINDOW 3 32 32 VTop 2
SYMATTR InstName D25
SYMATTR Value 1N4148
SYMBOL res -464 2224 R90
WINDOW 0 0 56 VBottom 2
WINDOW 3 32 56 VTop 2
SYMATTR InstName R70
SYMATTR Value 100k
SYMBOL npn -448 2064 R0
SYMATTR InstName Q35
SYMATTR Value 2N3904
SYMBOL res -448 2096 R90
WINDOW 0 0 56 VBottom 2
WINDOW 3 32 56 VTop 2
SYMATTR InstName R74
SYMATTR Value 100k
SYMBOL npn -464 2192 R0
SYMATTR InstName Q32
SYMATTR Value 2N3904
SYMBOL LED 1088 -336 R0
SYMATTR InstName D26
SYMATTR Value LXHL-BW02
SYMATTR Description Diode
SYMATTR Type diode
SYMATTR Value2 N=10
SYMBOL npn 1040 -224 R0
SYMATTR InstName Q24
SYMATTR Value 2N5550
SYMBOL res 1088 -112 R0
SYMATTR InstName R51
SYMATTR Value 10k
SYMBOL res 960 -144 R0
SYMATTR InstName R52
SYMATTR Value 14k
SYMBOL diode 912 -160 R270
WINDOW 0 32 32 VTop 2
WINDOW 3 0 32 VBottom 2
SYMATTR InstName D27
SYMATTR Value 1N4148
SYMBOL LED 96 -320 R0
SYMATTR InstName D28
SYMATTR Value LXHL-BW02
SYMATTR Description Diode
SYMATTR Type diode
SYMATTR Value2 N=10
SYMBOL npn 48 -208 R0
SYMATTR InstName Q33
SYMATTR Value 2N5550
SYMBOL res 96 -96 R0
SYMATTR InstName R71
SYMATTR Value 10k
SYMBOL res -32 -128 R0
SYMATTR InstName R72
SYMATTR Value 14.3k
SYMBOL diode -80 -144 R270
WINDOW 0 32 32 VTop 2
WINDOW 3 0 32 VBottom 2
SYMATTR InstName D29
SYMATTR Value 1N4148
SYMBOL LED 432 -320 R0
SYMATTR InstName D30
SYMATTR Value LXHL-BW02
SYMATTR Description Diode
SYMATTR Type diode
SYMATTR Value2 N=10
SYMBOL npn 384 -208 R0
SYMATTR InstName Q34
SYMATTR Value 2N5550
SYMBOL res 432 -96 R0
SYMATTR InstName R73
SYMATTR Value 10k
SYMBOL res 304 -128 R0
SYMATTR InstName R75
SYMATTR Value 100k
SYMBOL diode 256 -144 R270
WINDOW 0 32 32 VTop 2
WINDOW 3 0 32 VBottom 2
SYMATTR InstName D31
SYMATTR Value 1N4148
SYMBOL LED 2144 -336 R0
SYMATTR InstName D32
SYMATTR Value LXHL-BW02
SYMATTR Description Diode
SYMATTR Type diode
SYMATTR Value2 N=10
SYMBOL npn 2096 -224 R0
SYMATTR InstName Q36
SYMATTR Value 2N5550
SYMBOL res 2144 -112 R0
SYMATTR InstName R76
SYMATTR Value 10k
SYMBOL res 2016 -144 R0
SYMATTR InstName R77
SYMATTR Value 100k
SYMBOL diode 1968 -160 R270
WINDOW 0 32 32 VTop 2
WINDOW 3 0 32 VBottom 2
SYMATTR InstName D33
SYMATTR Value 1N4148
SYMBOL LED 2480 -336 R0
SYMATTR InstName D34
SYMATTR Value LXHL-BW02
SYMATTR Description Diode
SYMATTR Type diode
SYMATTR Value2 N=10
SYMBOL npn 2432 -224 R0
SYMATTR InstName Q37
SYMATTR Value 2N5550
SYMBOL res 2480 -112 R0
SYMATTR InstName R78
SYMATTR Value 10k
SYMBOL res 2352 -144 R0
SYMATTR InstName R79
SYMATTR Value 100k
SYMBOL diode 2304 -160 R270
WINDOW 0 32 32 VTop 2
WINDOW 3 0 32 VBottom 2
SYMATTR InstName D35
SYMATTR Value 1N4148
SYMBOL LED 1488 -320 R0
SYMATTR InstName D36
SYMATTR Value LXHL-BW02
SYMATTR Description Diode
SYMATTR Type diode
SYMATTR Value2 N=10
SYMBOL npn 1440 -208 R0
SYMATTR InstName Q38
SYMATTR Value 2N5550
SYMBOL res 1488 -96 R0
SYMATTR InstName R80
SYMATTR Value 10k
SYMBOL res 1360 -128 R0
SYMATTR InstName R81
SYMATTR Value 100k
SYMBOL diode 1312 -144 R270
WINDOW 0 32 32 VTop 2
WINDOW 3 0 32 VBottom 2
SYMATTR InstName D37
SYMATTR Value 1N4148
SYMBOL LED 1824 -320 R0
SYMATTR InstName D38
SYMATTR Value LXHL-BW02
SYMATTR Description Diode
SYMATTR Type diode
SYMATTR Value2 N=10
SYMBOL npn 1776 -208 R0
SYMATTR InstName Q39
SYMATTR Value 2N5550
SYMBOL res 1824 -96 R0
SYMATTR InstName R82
SYMATTR Value 10k
SYMBOL res 1696 -128 R0
SYMATTR InstName R83
SYMATTR Value 100k
SYMBOL diode 1648 -144 R270
WINDOW 0 32 32 VTop 2
WINDOW 3 0 32 VBottom 2
SYMATTR InstName D39
SYMATTR Value 1N4148
SYMBOL LED 3488 -336 R0
SYMATTR InstName D40
SYMATTR Value LXHL-BW02
SYMATTR Description Diode
SYMATTR Type diode
SYMATTR Value2 N=10
SYMBOL npn 3440 -224 R0
SYMATTR InstName Q40
SYMATTR Value 2N5550
SYMBOL res 3488 -112 R0
SYMATTR InstName R84
SYMATTR Value 10k
SYMBOL res 3360 -144 R0
SYMATTR InstName R85
SYMATTR Value 14k
SYMBOL diode 3312 -160 R270
WINDOW 0 32 32 VTop 2
WINDOW 3 0 32 VBottom 2
SYMATTR InstName D41
SYMATTR Value 1N4148
SYMBOL LED 3824 -336 R0
SYMATTR InstName D42
SYMATTR Value LXHL-BW02
SYMATTR Description Diode
SYMATTR Type diode
SYMATTR Value2 N=10
SYMBOL npn 3776 -224 R0
SYMATTR InstName Q41
SYMATTR Value 2N5550
SYMBOL res 3824 -112 R0
SYMATTR InstName R86
SYMATTR Value 10k
SYMBOL res 3696 -144 R0
SYMATTR InstName R87
SYMATTR Value 100k
SYMBOL diode 3648 -160 R270
WINDOW 0 32 32 VTop 2
WINDOW 3 0 32 VBottom 2
SYMATTR InstName D43
SYMATTR Value 1N4148
SYMBOL LED 2832 -320 R0
SYMATTR InstName D44
SYMATTR Value LXHL-BW02
SYMATTR Description Diode
SYMATTR Type diode
SYMATTR Value2 N=10
SYMBOL npn 2784 -208 R0
SYMATTR InstName Q42
SYMATTR Value 2N5550
SYMBOL res 2832 -96 R0
SYMATTR InstName R88
SYMATTR Value 10k
SYMBOL res 2704 -128 R0
SYMATTR InstName R89
SYMATTR Value 100k
SYMBOL diode 2656 -144 R270
WINDOW 0 32 32 VTop 2
WINDOW 3 0 32 VBottom 2
SYMATTR InstName D45
SYMATTR Value 1N4148
SYMBOL LED 3168 -320 R0
SYMATTR InstName D46
SYMATTR Value LXHL-BW02
SYMATTR Description Diode
SYMATTR Type diode
SYMATTR Value2 N=10
SYMBOL npn 3120 -208 R0
SYMATTR InstName Q43
SYMATTR Value 2N5550
SYMBOL res 3168 -96 R0
SYMATTR InstName R90
SYMATTR Value 10k
SYMBOL res 3040 -128 R0
SYMATTR InstName R91
SYMATTR Value 100k
SYMBOL diode 2992 -144 R270
WINDOW 0 32 32 VTop 2
WINDOW 3 0 32 VBottom 2
SYMATTR InstName D47
SYMATTR Value 1N4148
SYMBOL npn -16 1888 R0
SYMATTR InstName Q44
SYMATTR Value 2N3904
SYMBOL pnp -336 1920 M180
SYMATTR InstName Q45
SYMATTR Value 2N3906
SYMBOL res -80 1920 R90
WINDOW 0 0 56 VBottom 2
WINDOW 3 32 56 VTop 2
SYMATTR InstName R92
SYMATTR Value 2k2