Version 4
SHEET 1 3624 1268
WIRE 2048 -112 2016 -112
WIRE 2064 -112 2048 -112
WIRE 1184 -96 1152 -96
WIRE 1200 -96 1184 -96
WIRE 640 -32 640 -48
WIRE 688 -32 640 -32
WIRE 2048 -32 2048 -112
WIRE 352 -16 352 -48
WIRE 1184 -16 1184 -96
WIRE 640 0 640 -32
WIRE 688 0 688 -32
WIRE 2464 16 2464 -32
WIRE 2304 64 2304 48
WIRE 2400 64 2304 64
WIRE 1440 80 1440 64
WIRE 1536 80 1440 80
WIRE 1584 80 1536 80
WIRE 2304 80 2304 64
WIRE 352 96 352 64
WIRE 432 96 352 96
WIRE 640 96 640 64
WIRE 640 96 576 96
WIRE 688 96 688 80
WIRE 688 96 640 96
WIRE 720 96 688 96
WIRE 1440 96 1440 80
WIRE 352 112 352 96
WIRE 2464 128 2464 112
WIRE 2512 128 2464 128
WIRE 1648 144 1648 128
WIRE 1712 144 1648 144
WIRE 1984 144 1856 144
WIRE 32 160 -16 160
WIRE 160 160 112 160
WIRE 288 160 160 160
WIRE 784 160 784 144
WIRE 848 160 784 160
WIRE 1120 160 992 160
WIRE -16 176 -16 160
WIRE 1648 176 1648 144
WIRE 2464 176 2464 128
WIRE 160 192 160 160
WIRE 784 192 784 160
WIRE 2048 192 2048 96
WIRE 2304 192 2304 160
WIRE 2304 192 2048 192
WIRE 1184 208 1184 112
WIRE 1440 208 1440 176
WIRE 1440 208 1184 208
WIRE 2304 208 2304 192
WIRE 1440 224 1440 208
WIRE 2048 256 2048 192
WIRE 352 272 352 208
WIRE 1184 272 1184 208
WIRE 1984 304 1984 240
WIRE 1120 320 1120 256
WIRE 1984 368 1984 304
WIRE 1120 384 1120 320
WIRE 1984 480 1984 448
WIRE 2048 480 2048 352
WIRE 1120 496 1120 464
WIRE 1184 496 1184 368
WIRE 608 720 608 704
WIRE 656 720 608 720
WIRE 320 736 320 704
WIRE 608 752 608 720
WIRE 656 752 656 720
WIRE 2480 768 2480 720
WIRE 2320 816 2320 800
WIRE 2416 816 2320 816
WIRE 1408 832 1408 816
WIRE 1504 832 1408 832
WIRE 1600 832 1504 832
WIRE 2320 832 2320 816
WIRE 320 848 320 816
WIRE 400 848 320 848
WIRE 608 848 608 816
WIRE 608 848 544 848
WIRE 656 848 656 832
WIRE 656 848 608 848
WIRE 688 848 656 848
WIRE 1408 848 1408 832
WIRE 320 864 320 848
WIRE 2480 880 2480 864
WIRE 2528 880 2480 880
WIRE 1664 896 1664 880
WIRE 1728 896 1664 896
WIRE 2000 896 1872 896
WIRE 0 912 -48 912
WIRE 128 912 80 912
WIRE 256 912 128 912
WIRE 752 912 752 896
WIRE 816 912 752 912
WIRE 1088 912 960 912
WIRE -48 928 -48 912
WIRE 1664 928 1664 896
WIRE 2480 928 2480 880
WIRE 128 944 128 912
WIRE 752 944 752 912
WIRE 2320 944 2320 912
WIRE 2320 944 2064 944
WIRE 1408 960 1408 928
WIRE 1408 960 1152 960
WIRE 2320 960 2320 944
WIRE 1408 976 1408 960
WIRE 2064 1008 2064 944
WIRE 320 1024 320 960
WIRE 1152 1024 1152 960
WIRE 2000 1056 2000 992
WIRE 1088 1072 1088 1008
WIRE 2000 1120 2000 1056
WIRE 1088 1136 1088 1072
WIRE 2000 1232 2000 1200
WIRE 2064 1232 2064 1104
WIRE 1088 1248 1088 1216
WIRE 1152 1248 1152 1120
FLAG -16 256 0
FLAG -32 0 VCC
FLAG -32 80 0
FLAG 160 272 0
FLAG 352 272 0
FLAG 352 -48 VCC
FLAG 640 -48 VCC
FLAG 784 -32 VCC
FLAG 784 256 0
FLAG 1120 496 0
FLAG 1184 496 0
FLAG 1280 -96 VCC
FLAG 1072 -96 0
FLAG 1440 -16 VCC
FLAG 1440 304 0
FLAG 1536 80 out10
FLAG -64 752 VCC1
FLAG -64 832 0
FLAG 128 1024 0
FLAG 320 1024 0
FLAG 320 704 VCC1
FLAG 608 704 VCC1
FLAG 752 720 VCC1
FLAG 752 1008 0
FLAG 1088 1248 0
FLAG 1152 1248 0
FLAG 1408 736 VCC1
FLAG 1408 1056 0
FLAG 1504 832 out10_new
FLAG -48 928 in
FLAG -16 160 in
FLAG 1648 -48 VCC
FLAG 1648 240 0
FLAG 1984 480 0
FLAG 2048 480 0
FLAG 2144 -112 VCC
FLAG 1936 -112 0
FLAG 2304 -32 VCC
FLAG 2304 288 0
FLAG 2464 -32 VCC
FLAG 2512 128 out50
FLAG 2464 256 0
FLAG 1664 704 VCC1
FLAG 1664 992 0
FLAG 2000 1232 0
FLAG 2064 1232 0
FLAG 2320 720 VCC1
FLAG 2320 1040 0
FLAG 2480 720 VCC1
FLAG 2528 880 out50_new
FLAG 2480 1008 0
SYMBOL voltage -16 160 R0
WINDOW 3 -43 169 Left 2
WINDOW 123 0 0 Left 0
WINDOW 39 0 0 Left 0
SYMATTR Value PULSE(0 12 0 10u 10u 8m 20m)
SYMATTR InstName V1
SYMBOL voltage -32 -16 R0
WINDOW 123 0 0 Left 0
WINDOW 39 0 0 Left 0
SYMATTR InstName V2
SYMATTR Value 12
SYMBOL res 128 144 R90
WINDOW 0 0 56 VBottom 2
WINDOW 3 32 56 VTop 2
SYMATTR InstName R1
SYMATTR Value 100k
SYMBOL res 176 288 R180
WINDOW 0 36 76 Left 2
WINDOW 3 36 40 Left 2
SYMATTR InstName R2
SYMATTR Value 100k
SYMBOL npn 288 112 R0
SYMATTR InstName Q1
SYMATTR Value 2N3904
SYMBOL res 336 -32 R0
SYMATTR InstName R3
SYMATTR Value 10k
SYMBOL res 528 80 R90
WINDOW 0 0 56 VBottom 2
WINDOW 3 32 56 VTop 2
SYMATTR InstName R4
SYMATTR Value 10k
SYMBOL cap 576 80 R90
WINDOW 0 0 32 VBottom 2
WINDOW 3 32 32 VTop 2
SYMATTR InstName C1
SYMATTR Value 220n
SYMBOL diode 656 64 R180
WINDOW 0 24 64 Left 2
WINDOW 3 24 0 Left 2
SYMATTR InstName D1
SYMATTR Value 1N4148
SYMBOL pnp 720 144 M180
SYMATTR InstName Q2
SYMATTR Value 2N3906
SYMBOL res 768 -48 R0
SYMATTR InstName R5
SYMATTR Value {Rp}
SYMBOL cap 768 192 R0
SYMATTR InstName C2
SYMATTR Value 1µ5
SYMATTR SpiceLine Rpar=1Meg
SYMBOL res 944 144 R90
WINDOW 0 0 56 VBottom 2
WINDOW 3 32 56 VTop 2
SYMATTR InstName R6
SYMATTR Value 1k
SYMBOL diode 928 176 R270
WINDOW 0 32 32 VTop 2
WINDOW 3 0 32 VBottom 2
SYMATTR InstName D2
SYMATTR Value 1N4148
SYMBOL pnp 1184 256 R180
SYMATTR InstName Q3
SYMATTR Value 2N3906
SYMBOL npn 1120 272 R0
SYMATTR InstName Q4
SYMATTR Value 2N3904
SYMBOL res 1136 480 R180
WINDOW 0 36 76 Left 2
WINDOW 3 36 40 Left 2
SYMATTR InstName R7
SYMATTR Value 100k
SYMBOL diode 1168 48 R0
SYMATTR InstName D3
SYMATTR Value 1N4148
SYMBOL LED 1168 -16 R0
SYMATTR InstName D4
SYMATTR Value NSPW500BS
SYMATTR Description Diode
SYMATTR Type diode
SYMBOL res 1168 -112 R90
WINDOW 0 0 56 VBottom 2
WINDOW 3 32 56 VTop 2
SYMATTR InstName R8
SYMATTR Value 2k2
SYMBOL res 1296 -112 R90
WINDOW 0 0 56 VBottom 2
WINDOW 3 32 56 VTop 2
SYMATTR InstName R9
SYMATTR Value 1k
SYMBOL res 1424 80 R0
SYMATTR InstName R10
SYMATTR Value 2k2
SYMBOL res 1424 208 R0
SYMATTR InstName R11
SYMATTR Value 10k
SYMBOL res 1424 -32 R0
SYMATTR InstName R12
SYMATTR Value 330
SYMBOL res 672 -16 R0
SYMATTR InstName R13
SYMATTR Value 4k7
SYMBOL voltage -64 736 R0
WINDOW 123 0 0 Left 0
WINDOW 39 0 0 Left 0
SYMATTR InstName V4
SYMATTR Value 12
SYMBOL res 96 896 R90
WINDOW 0 0 56 VBottom 2
WINDOW 3 32 56 VTop 2
SYMATTR InstName R14
SYMATTR Value 100k
SYMBOL res 144 1040 R180
WINDOW 0 36 76 Left 2
WINDOW 3 36 40 Left 2
SYMATTR InstName R15
SYMATTR Value 100k
SYMBOL npn 256 864 R0
SYMATTR InstName Q5
SYMATTR Value 2N3904
SYMBOL res 304 720 R0
SYMATTR InstName R16
SYMATTR Value 10k
SYMBOL res 496 832 R90
WINDOW 0 0 56 VBottom 2
WINDOW 3 32 56 VTop 2
SYMATTR InstName R17
SYMATTR Value 10k
SYMBOL cap 544 832 R90
WINDOW 0 0 32 VBottom 2
WINDOW 3 32 32 VTop 2
SYMATTR InstName C3
SYMATTR Value 100n
SYMBOL diode 624 816 R180
WINDOW 0 24 64 Left 2
WINDOW 3 24 0 Left 2
SYMATTR InstName D5
SYMATTR Value 1N4148
SYMBOL pnp 688 896 M180
SYMATTR InstName Q6
SYMATTR Value 2N3906
SYMBOL res 736 704 R0
SYMATTR InstName R18
SYMATTR Value {Rpn}
SYMBOL cap 736 944 R0
SYMATTR InstName C4
SYMATTR Value 1µ
SYMBOL res 912 896 R90
WINDOW 0 0 56 VBottom 2
WINDOW 3 32 56 VTop 2
SYMATTR InstName R19
SYMATTR Value 1k
SYMBOL diode 896 928 R270
WINDOW 0 32 32 VTop 2
WINDOW 3 0 32 VBottom 2
SYMATTR InstName D6
SYMATTR Value 1N4148
SYMBOL pnp 1152 1008 R180
SYMATTR InstName Q7
SYMATTR Value 2N3906
SYMBOL npn 1088 1024 R0
SYMATTR InstName Q8
SYMATTR Value 2N3904
SYMBOL res 1104 1232 R180
WINDOW 0 36 76 Left 2
WINDOW 3 36 40 Left 2
SYMATTR InstName R20
SYMATTR Value 100k
SYMBOL res 1392 832 R0
SYMATTR InstName R23
SYMATTR Value 20k
SYMBOL res 1392 960 R0
SYMATTR InstName R24
SYMATTR Value 100k
SYMBOL res 1392 720 R0
SYMATTR InstName R25
SYMATTR Value 2k2
SYMBOL res 640 736 R0
SYMATTR InstName R26
SYMATTR Value 4k7
SYMBOL pnp 1584 128 M180
SYMATTR InstName Q9
SYMATTR Value 2N3906
SYMBOL res 1632 -64 R0
SYMATTR InstName R21
SYMATTR Value 2k7
SYMBOL cap 1632 176 R0
SYMATTR InstName C5
SYMATTR Value 1µ5
SYMBOL res 1808 128 R90
WINDOW 0 0 56 VBottom 2
WINDOW 3 32 56 VTop 2
SYMATTR InstName R22
SYMATTR Value 1k
SYMBOL diode 1792 160 R270
WINDOW 0 32 32 VTop 2
WINDOW 3 0 32 VBottom 2
SYMATTR InstName D7
SYMATTR Value 1N4148
SYMBOL pnp 2048 240 R180
SYMATTR InstName Q10
SYMATTR Value 2N3906
SYMBOL npn 1984 256 R0
SYMATTR InstName Q11
SYMATTR Value 2N3904
SYMBOL res 2000 464 R180
WINDOW 0 36 76 Left 2
WINDOW 3 36 40 Left 2
SYMATTR InstName R27
SYMATTR Value 100k
SYMBOL diode 2032 32 R0
SYMATTR InstName D8
SYMATTR Value 1N4148
SYMBOL LED 2032 -32 R0
SYMATTR InstName D9
SYMATTR Value NSPW500BS
SYMATTR Description Diode
SYMATTR Type diode
SYMBOL res 2032 -128 R90
WINDOW 0 0 56 VBottom 2
WINDOW 3 32 56 VTop 2
SYMATTR InstName R28
SYMATTR Value 2k2
SYMBOL res 2160 -128 R90
WINDOW 0 0 56 VBottom 2
WINDOW 3 32 56 VTop 2
SYMATTR InstName R29
SYMATTR Value 1k
SYMBOL res 2288 64 R0
SYMATTR InstName R30
SYMATTR Value 2k2
SYMBOL res 2288 192 R0
SYMATTR InstName R31
SYMATTR Value 10k
SYMBOL res 2288 -48 R0
SYMATTR InstName R32
SYMATTR Value 330
SYMBOL pnp 2400 112 M180
SYMATTR InstName Q12
SYMATTR Value 2N3906
SYMBOL res 2448 160 R0
SYMATTR InstName R33
SYMATTR Value 10k
SYMBOL pnp 1600 880 M180
SYMATTR InstName Q13
SYMATTR Value 2N3906
SYMBOL res 1648 688 R0
SYMATTR InstName R34
SYMATTR Value 2k7
SYMBOL cap 1648 928 R0
SYMATTR InstName C6
SYMATTR Value 1µ
SYMBOL res 1824 880 R90
WINDOW 0 0 56 VBottom 2
WINDOW 3 32 56 VTop 2
SYMATTR InstName R35
SYMATTR Value 1k
SYMBOL diode 1808 912 R270
WINDOW 0 32 32 VTop 2
WINDOW 3 0 32 VBottom 2
SYMATTR InstName D10
SYMATTR Value 1N4148
SYMBOL pnp 2064 992 R180
SYMATTR InstName Q14
SYMATTR Value 2N3906
SYMBOL npn 2000 1008 R0
SYMATTR InstName Q15
SYMATTR Value 2N3904
SYMBOL res 2016 1216 R180
WINDOW 0 36 76 Left 2
WINDOW 3 36 40 Left 2
SYMATTR InstName R36
SYMATTR Value 100k
SYMBOL res 2304 816 R0
SYMATTR InstName R39
SYMATTR Value 20k
SYMBOL res 2304 944 R0
SYMATTR InstName R40
SYMATTR Value 100k
SYMBOL res 2304 704 R0
SYMATTR InstName R41
SYMATTR Value 2k2
SYMBOL pnp 2416 864 M180
SYMATTR InstName Q16
SYMATTR Value 2N3906
SYMBOL res 2464 912 R0
SYMATTR InstName R42
SYMATTR Value 10k
TEXT -72 368 Left 2 !.tran {150*1/50}
TEXT 424 1136 Left 2 !.param Rp=3.9k Rpn=2k7
