Version 4
SHEET 1 9008 8052
WIRE -976 1776 -1008 1776
WIRE -880 1776 -912 1776
WIRE -832 1776 -880 1776
WIRE -720 1776 -768 1776
WIRE -688 1776 -720 1776
WIRE -592 1776 -608 1776
WIRE -880 1808 -880 1776
WIRE 2048 1840 2048 1824
WIRE 2096 1840 2048 1840
WIRE 4368 1840 4368 1792
WIRE 1760 1856 1760 1824
WIRE 2048 1872 2048 1840
WIRE 2096 1872 2096 1840
WIRE 3920 1888 3920 1840
WIRE 4176 1888 4176 1872
WIRE 4256 1888 4176 1888
WIRE 4304 1888 4256 1888
WIRE 832 1904 784 1904
WIRE 880 1904 832 1904
WIRE -1168 1920 -1312 1920
WIRE -1120 1920 -1168 1920
WIRE -1008 1920 -1008 1776
WIRE -1008 1920 -1056 1920
WIRE -960 1920 -1008 1920
WIRE -880 1920 -880 1872
WIRE -880 1920 -896 1920
WIRE -1008 1936 -1008 1920
WIRE 3760 1936 3760 1920
WIRE 3856 1936 3760 1936
WIRE 2848 1952 2848 1936
WIRE 2944 1952 2848 1952
WIRE 3040 1952 2944 1952
WIRE 3760 1952 3760 1936
WIRE 4176 1952 4176 1888
WIRE 4256 1952 4256 1888
WIRE 1760 1968 1760 1936
WIRE 1840 1968 1760 1968
WIRE 2048 1968 2048 1936
WIRE 2048 1968 1984 1968
WIRE 2096 1968 2096 1952
WIRE 2096 1968 2048 1968
WIRE 2128 1968 2096 1968
WIRE 2848 1968 2848 1952
WIRE 1760 1984 1760 1968
WIRE 4368 1984 4368 1936
WIRE 4416 1984 4368 1984
WIRE 544 2000 544 1968
WIRE 544 2000 368 2000
WIRE 880 2000 880 1904
WIRE 3920 2000 3920 1984
WIRE 3968 2000 3920 2000
WIRE 4368 2000 4368 1984
WIRE -1312 2016 -1312 2000
WIRE -1008 2016 -1008 2000
WIRE -1008 2016 -1312 2016
WIRE -880 2016 -880 1984
WIRE -880 2016 -1008 2016
WIRE -800 2016 -880 2016
WIRE -768 2016 -800 2016
WIRE -592 2016 -768 2016
WIRE -368 2016 -496 2016
WIRE -304 2016 -368 2016
WIRE -240 2016 -304 2016
WIRE 3104 2016 3104 2000
WIRE 3168 2016 3104 2016
WIRE 3440 2016 3312 2016
WIRE 1440 2032 1392 2032
WIRE 1568 2032 1520 2032
WIRE 1696 2032 1568 2032
WIRE 2192 2032 2192 2016
WIRE 2256 2032 2192 2032
WIRE 2528 2032 2400 2032
WIRE 4256 2032 4256 2016
WIRE -1008 2048 -1008 2016
WIRE -880 2048 -880 2016
WIRE 544 2048 544 2000
WIRE 544 2048 512 2048
WIRE 656 2048 544 2048
WIRE 752 2048 736 2048
WIRE 784 2048 784 1984
WIRE 784 2048 752 2048
WIRE 816 2048 784 2048
WIRE 3104 2048 3104 2016
WIRE 3920 2048 3920 2000
WIRE 1568 2064 1568 2032
WIRE 2192 2064 2192 2032
WIRE 3760 2064 3760 2032
WIRE 3760 2064 3504 2064
WIRE 2848 2080 2848 2048
WIRE 2848 2080 2592 2080
WIRE 3760 2080 3760 2064
WIRE 1008 2096 880 2096
WIRE 2848 2096 2848 2080
WIRE 4368 2096 4368 2080
WIRE -1168 2112 -1168 1920
WIRE -1120 2112 -1168 2112
WIRE -1008 2112 -1056 2112
WIRE -992 2112 -1008 2112
WIRE -880 2112 -928 2112
WIRE -368 2112 -368 2016
WIRE 432 2112 432 2048
WIRE -768 2128 -768 2096
WIRE -720 2128 -768 2128
WIRE -608 2128 -720 2128
WIRE -512 2128 -512 2064
WIRE -512 2128 -528 2128
WIRE 3504 2128 3504 2064
WIRE -880 2144 -880 2112
WIRE 656 2144 656 2048
WIRE 752 2144 752 2048
WIRE 752 2144 720 2144
WIRE 1760 2144 1760 2080
WIRE 2592 2144 2592 2080
WIRE 80 2160 32 2160
WIRE 192 2160 160 2160
WIRE 224 2160 192 2160
WIRE -512 2176 -512 2128
WIRE 3440 2176 3440 2112
WIRE 192 2192 192 2160
WIRE 2528 2192 2528 2128
WIRE 544 2208 544 2192
WIRE 544 2208 432 2208
WIRE -368 2224 -368 2192
WIRE -368 2224 -448 2224
WIRE 3440 2240 3440 2176
WIRE 2528 2256 2528 2192
WIRE -368 2272 -368 2224
WIRE -512 2304 -512 2272
WIRE -1008 2336 -1008 2112
WIRE -960 2336 -1008 2336
WIRE 3440 2352 3440 2320
WIRE 3504 2352 3504 2224
WIRE -368 2368 -368 2352
WIRE 2528 2368 2528 2336
WIRE 2592 2368 2592 2240
WIRE 2400 2576 -832 2576
WIRE 6992 2576 3760 2576
WIRE -928 2608 -1072 2608
WIRE -752 2608 -928 2608
WIRE -416 2608 -752 2608
WIRE -96 2608 -416 2608
WIRE 224 2608 -96 2608
WIRE 544 2608 224 2608
WIRE 864 2608 544 2608
WIRE 1184 2608 864 2608
WIRE 1504 2608 1184 2608
WIRE 1824 2608 1504 2608
WIRE 2144 2608 1824 2608
WIRE 3664 2608 3520 2608
WIRE 3840 2608 3664 2608
WIRE 4176 2608 3840 2608
WIRE 4496 2608 4176 2608
WIRE 4816 2608 4496 2608
WIRE 5136 2608 4816 2608
WIRE 5456 2608 5136 2608
WIRE 5776 2608 5456 2608
WIRE -752 2640 -752 2608
WIRE -416 2640 -416 2608
WIRE -96 2640 -96 2608
WIRE 224 2640 224 2608
WIRE 544 2640 544 2608
WIRE 864 2640 864 2608
WIRE 1184 2640 1184 2608
WIRE 1504 2640 1504 2608
WIRE 1824 2640 1824 2608
WIRE 2144 2640 2144 2608
WIRE 3840 2640 3840 2608
WIRE 4176 2640 4176 2608
WIRE 4496 2640 4496 2608
WIRE 4816 2640 4816 2608
WIRE 5136 2640 5136 2608
WIRE 5456 2640 5456 2608
WIRE -832 2752 -832 2576
WIRE -816 2752 -832 2752
WIRE -752 2752 -752 2720
WIRE -704 2752 -752 2752
WIRE -480 2752 -640 2752
WIRE -416 2752 -416 2720
WIRE -400 2752 -416 2752
WIRE -368 2752 -400 2752
WIRE -160 2752 -304 2752
WIRE -96 2752 -96 2720
WIRE -80 2752 -96 2752
WIRE -48 2752 -80 2752
WIRE 160 2752 16 2752
WIRE 224 2752 224 2720
WIRE 256 2752 224 2752
WIRE 272 2752 256 2752
WIRE 480 2752 336 2752
WIRE 544 2752 544 2720
WIRE 592 2752 544 2752
WIRE 800 2752 656 2752
WIRE 864 2752 864 2720
WIRE 912 2752 864 2752
WIRE 1120 2752 976 2752
WIRE 1184 2752 1184 2720
WIRE 1232 2752 1184 2752
WIRE 1440 2752 1296 2752
WIRE 1504 2752 1504 2720
WIRE 1552 2752 1504 2752
WIRE 1760 2752 1616 2752
WIRE 1824 2752 1824 2720
WIRE 1872 2752 1824 2752
WIRE 2080 2752 1936 2752
WIRE 2144 2752 2144 2720
WIRE 2176 2752 2144 2752
WIRE 2192 2752 2176 2752
WIRE 2400 2752 2400 2576
WIRE 2400 2752 2256 2752
WIRE 3760 2752 3760 2576
WIRE 3776 2752 3760 2752
WIRE 3840 2752 3840 2720
WIRE 3888 2752 3840 2752
WIRE 4112 2752 3952 2752
WIRE 4176 2752 4176 2720
WIRE 4192 2752 4176 2752
WIRE 4224 2752 4192 2752
WIRE 4432 2752 4288 2752
WIRE 4496 2752 4496 2720
WIRE 4512 2752 4496 2752
WIRE 4544 2752 4512 2752
WIRE 4752 2752 4608 2752
WIRE 4816 2752 4816 2720
WIRE 4848 2752 4816 2752
WIRE 4864 2752 4848 2752
WIRE 5072 2752 4928 2752
WIRE 5136 2752 5136 2720
WIRE 5184 2752 5136 2752
WIRE 5392 2752 5248 2752
WIRE 5456 2752 5456 2720
WIRE 5504 2752 5456 2752
WIRE 5712 2752 5568 2752
WIRE 6992 2752 6992 2576
WIRE 6992 2752 6848 2752
WIRE -1072 2784 -1072 2608
WIRE -752 2784 -752 2752
WIRE -416 2784 -416 2752
WIRE -96 2784 -96 2752
WIRE 224 2784 224 2752
WIRE 544 2784 544 2752
WIRE 864 2784 864 2752
WIRE 1184 2784 1184 2752
WIRE 1504 2784 1504 2752
WIRE 1824 2784 1824 2752
WIRE 2144 2784 2144 2752
WIRE 3520 2784 3520 2608
WIRE 3840 2784 3840 2752
WIRE 4176 2784 4176 2752
WIRE 4496 2784 4496 2752
WIRE 4816 2784 4816 2752
WIRE 5136 2784 5136 2752
WIRE 5456 2784 5456 2752
WIRE -1296 2832 -1312 2832
WIRE -1184 2832 -1216 2832
WIRE -1136 2832 -1184 2832
WIRE 3296 2832 3280 2832
WIRE 3408 2832 3376 2832
WIRE 3456 2832 3408 2832
WIRE -1184 2864 -1184 2832
WIRE -816 2864 -816 2752
WIRE -752 2864 -752 2848
WIRE -752 2864 -816 2864
WIRE -480 2864 -480 2752
WIRE -416 2864 -416 2848
WIRE -416 2864 -480 2864
WIRE -160 2864 -160 2752
WIRE -96 2864 -96 2848
WIRE -96 2864 -160 2864
WIRE 160 2864 160 2752
WIRE 224 2864 224 2848
WIRE 224 2864 160 2864
WIRE 480 2864 480 2752
WIRE 544 2864 544 2848
WIRE 544 2864 480 2864
WIRE 800 2864 800 2752
WIRE 864 2864 864 2848
WIRE 864 2864 800 2864
WIRE 1120 2864 1120 2752
WIRE 1184 2864 1184 2848
WIRE 1184 2864 1120 2864
WIRE 1440 2864 1440 2752
WIRE 1504 2864 1504 2848
WIRE 1504 2864 1440 2864
WIRE 1760 2864 1760 2752
WIRE 1824 2864 1824 2848
WIRE 1824 2864 1760 2864
WIRE 2080 2864 2080 2752
WIRE 2144 2864 2144 2848
WIRE 2144 2864 2080 2864
WIRE 3408 2864 3408 2832
WIRE 3776 2864 3776 2752
WIRE 3840 2864 3840 2848
WIRE 3840 2864 3776 2864
WIRE 4112 2864 4112 2752
WIRE 4176 2864 4176 2848
WIRE 4176 2864 4112 2864
WIRE 4432 2864 4432 2752
WIRE 4496 2864 4496 2848
WIRE 4496 2864 4432 2864
WIRE 4752 2864 4752 2752
WIRE 4816 2864 4816 2848
WIRE 4816 2864 4752 2864
WIRE 5072 2864 5072 2752
WIRE 5136 2864 5136 2848
WIRE 5136 2864 5072 2864
WIRE 5392 2864 5392 2752
WIRE 5456 2864 5456 2848
WIRE 5456 2864 5392 2864
WIRE -752 2880 -752 2864
WIRE -416 2880 -416 2864
WIRE -96 2880 -96 2864
WIRE 224 2880 224 2864
WIRE 544 2880 544 2864
WIRE 864 2880 864 2864
WIRE 1184 2880 1184 2864
WIRE 1504 2880 1504 2864
WIRE 1824 2880 1824 2864
WIRE 2144 2880 2144 2864
WIRE 3840 2880 3840 2864
WIRE 4176 2880 4176 2864
WIRE 4496 2880 4496 2864
WIRE 4816 2880 4816 2864
WIRE 5136 2880 5136 2864
WIRE 5456 2880 5456 2864
WIRE -672 2928 -688 2928
WIRE -656 2928 -672 2928
WIRE -544 2928 -576 2928
WIRE -336 2928 -352 2928
WIRE -320 2928 -336 2928
WIRE -208 2928 -240 2928
WIRE -16 2928 -32 2928
WIRE 0 2928 -16 2928
WIRE 112 2928 80 2928
WIRE 304 2928 288 2928
WIRE 320 2928 304 2928
WIRE 432 2928 400 2928
WIRE 624 2928 608 2928
WIRE 640 2928 624 2928
WIRE 752 2928 720 2928
WIRE 944 2928 928 2928
WIRE 960 2928 944 2928
WIRE 1072 2928 1040 2928
WIRE 1264 2928 1248 2928
WIRE 1280 2928 1264 2928
WIRE 1392 2928 1360 2928
WIRE 1584 2928 1568 2928
WIRE 1600 2928 1584 2928
WIRE 1712 2928 1680 2928
WIRE 1904 2928 1888 2928
WIRE 1920 2928 1904 2928
WIRE 2032 2928 2000 2928
WIRE 2224 2928 2208 2928
WIRE 2240 2928 2224 2928
WIRE 2352 2928 2320 2928
WIRE 3920 2928 3904 2928
WIRE 3936 2928 3920 2928
WIRE 4048 2928 4016 2928
WIRE 4256 2928 4240 2928
WIRE 4272 2928 4256 2928
WIRE 4384 2928 4352 2928
WIRE 4576 2928 4560 2928
WIRE 4592 2928 4576 2928
WIRE 4704 2928 4672 2928
WIRE 4896 2928 4880 2928
WIRE 4912 2928 4896 2928
WIRE 5024 2928 4992 2928
WIRE 5216 2928 5200 2928
WIRE 5232 2928 5216 2928
WIRE 5344 2928 5312 2928
WIRE 5536 2928 5520 2928
WIRE 5552 2928 5536 2928
WIRE 5664 2928 5632 2928
WIRE -1072 2944 -1072 2880
WIRE 3520 2944 3520 2880
WIRE -672 2976 -672 2928
WIRE -336 2976 -336 2928
WIRE -16 2976 -16 2928
WIRE 304 2976 304 2928
WIRE 624 2976 624 2928
WIRE 944 2976 944 2928
WIRE 1264 2976 1264 2928
WIRE 1584 2976 1584 2928
WIRE 1904 2976 1904 2928
WIRE 2224 2976 2224 2928
WIRE 3920 2976 3920 2928
WIRE 4256 2976 4256 2928
WIRE 4576 2976 4576 2928
WIRE 4896 2976 4896 2928
WIRE 5216 2976 5216 2928
WIRE 5536 2976 5536 2928
WIRE -752 3024 -752 2976
WIRE -752 3024 -784 3024
WIRE -736 3024 -752 3024
WIRE -416 3024 -416 2976
WIRE -416 3024 -448 3024
WIRE -400 3024 -416 3024
WIRE -96 3024 -96 2976
WIRE -96 3024 -128 3024
WIRE -80 3024 -96 3024
WIRE 224 3024 224 2976
WIRE 224 3024 192 3024
WIRE 240 3024 224 3024
WIRE 544 3024 544 2976
WIRE 544 3024 512 3024
WIRE 560 3024 544 3024
WIRE 864 3024 864 2976
WIRE 864 3024 832 3024
WIRE 880 3024 864 3024
WIRE 1184 3024 1184 2976
WIRE 1184 3024 1152 3024
WIRE 1200 3024 1184 3024
WIRE 1504 3024 1504 2976
WIRE 1504 3024 1472 3024
WIRE 1520 3024 1504 3024
WIRE 1824 3024 1824 2976
WIRE 1824 3024 1792 3024
WIRE 1840 3024 1824 3024
WIRE 2144 3024 2144 2976
WIRE 2144 3024 2112 3024
WIRE 2160 3024 2144 3024
WIRE 3840 3024 3840 2976
WIRE 3840 3024 3808 3024
WIRE 3856 3024 3840 3024
WIRE 4176 3024 4176 2976
WIRE 4176 3024 4144 3024
WIRE 4192 3024 4176 3024
WIRE 4496 3024 4496 2976
WIRE 4496 3024 4464 3024
WIRE 4512 3024 4496 3024
WIRE 4816 3024 4816 2976
WIRE 4816 3024 4784 3024
WIRE 4832 3024 4816 3024
WIRE 5136 3024 5136 2976
WIRE 5136 3024 5104 3024
WIRE 5152 3024 5136 3024
WIRE 5456 3024 5456 2976
WIRE 5456 3024 5424 3024
WIRE 5472 3024 5456 3024
WIRE -784 3040 -784 3024
WIRE -448 3040 -448 3024
WIRE -128 3040 -128 3024
WIRE 192 3040 192 3024
WIRE 512 3040 512 3024
WIRE 832 3040 832 3024
WIRE 1152 3040 1152 3024
WIRE 1472 3040 1472 3024
WIRE 1792 3040 1792 3024
WIRE 2112 3040 2112 3024
WIRE 3808 3040 3808 3024
WIRE 4144 3040 4144 3024
WIRE 4464 3040 4464 3024
WIRE 4784 3040 4784 3024
WIRE 5104 3040 5104 3024
WIRE 5424 3040 5424 3024
WIRE -672 3120 -672 3072
WIRE -672 3120 -784 3120
WIRE -336 3120 -336 3072
WIRE -336 3120 -448 3120
WIRE -16 3120 -16 3072
WIRE -16 3120 -128 3120
WIRE 304 3120 304 3072
WIRE 304 3120 192 3120
WIRE 624 3120 624 3072
WIRE 624 3120 512 3120
WIRE 944 3120 944 3072
WIRE 944 3120 832 3120
WIRE 1264 3120 1264 3072
WIRE 1264 3120 1152 3120
WIRE 1584 3120 1584 3072
WIRE 1584 3120 1472 3120
WIRE 1904 3120 1904 3072
WIRE 1904 3120 1792 3120
WIRE 2224 3120 2224 3072
WIRE 2224 3120 2112 3120
WIRE 3920 3120 3920 3072
WIRE 3920 3120 3808 3120
WIRE 4256 3120 4256 3072
WIRE 4256 3120 4144 3120
WIRE 4576 3120 4576 3072
WIRE 4576 3120 4464 3120
WIRE 4896 3120 4896 3072
WIRE 4896 3120 4784 3120
WIRE 5216 3120 5216 3072
WIRE 5216 3120 5104 3120
WIRE 5536 3120 5536 3072
WIRE 5536 3120 5424 3120
WIRE -672 3264 -672 3120
WIRE 3920 3264 3920 3120
WIRE 2720 3376 2704 3376
WIRE 7312 3376 7296 3376
WIRE -672 3392 -672 3264
WIRE 304 3392 304 3120
WIRE 944 3392 944 3120
WIRE 1264 3392 1264 3120
WIRE 1584 3392 1584 3120
WIRE 1904 3392 1904 3120
WIRE 2224 3392 2224 3120
WIRE 3920 3392 3920 3264
WIRE 4896 3392 4896 3120
WIRE 5536 3392 5536 3120
WIRE -16 3408 -16 3120
WIRE 4576 3408 4576 3120
WIRE 2512 3424 2464 3424
WIRE 2576 3424 2512 3424
WIRE 7104 3424 7056 3424
WIRE 7168 3424 7104 3424
WIRE -608 3456 -608 3392
WIRE 48 3456 48 3408
WIRE 48 3456 -608 3456
WIRE 368 3456 368 3392
WIRE 368 3456 48 3456
WIRE 1008 3456 1008 3392
WIRE 1008 3456 368 3456
WIRE 1328 3456 1328 3392
WIRE 1328 3456 1008 3456
WIRE 1648 3456 1648 3392
WIRE 1648 3456 1328 3456
WIRE 1968 3456 1968 3392
WIRE 1968 3456 1648 3456
WIRE 2288 3456 2288 3392
WIRE 2288 3456 1968 3456
WIRE 2464 3456 2464 3424
WIRE 2464 3456 2288 3456
WIRE 3984 3456 3984 3392
WIRE 4640 3456 4640 3408
WIRE 4640 3456 3984 3456
WIRE 4960 3456 4960 3392
WIRE 4960 3456 4640 3456
WIRE 5600 3456 5600 3392
WIRE 5600 3456 4960 3456
WIRE 7056 3456 7056 3424
WIRE 7056 3456 5600 3456
WIRE 2640 3472 2640 3456
WIRE 7232 3472 7232 3456
WIRE -672 3504 -672 3392
WIRE -336 3504 -336 3120
WIRE -16 3504 -16 3408
WIRE 304 3504 304 3392
WIRE 624 3504 624 3120
WIRE 1584 3504 1584 3392
WIRE 1904 3504 1904 3392
WIRE 2224 3504 2224 3392
WIRE 2720 3504 2704 3504
WIRE 3920 3504 3920 3392
WIRE 4256 3504 4256 3120
WIRE 4576 3504 4576 3408
WIRE 4896 3504 4896 3392
WIRE 5216 3504 5216 3120
WIRE 7312 3504 7296 3504
WIRE -608 3552 -608 3504
WIRE -272 3552 -272 3504
WIRE -272 3552 -608 3552
WIRE 48 3552 48 3504
WIRE 48 3552 -272 3552
WIRE 368 3552 368 3504
WIRE 368 3552 48 3552
WIRE 688 3552 688 3504
WIRE 688 3552 368 3552
WIRE 1648 3552 1648 3504
WIRE 1648 3552 688 3552
WIRE 1968 3552 1968 3504
WIRE 1968 3552 1648 3552
WIRE 2288 3552 2288 3504
WIRE 2288 3552 1968 3552
WIRE 2512 3552 2288 3552
WIRE 2576 3552 2512 3552
WIRE 3984 3552 3984 3504
WIRE 4320 3552 4320 3504
WIRE 4320 3552 3984 3552
WIRE 4640 3552 4640 3504
WIRE 4640 3552 4320 3552
WIRE 4960 3552 4960 3504
WIRE 4960 3552 4640 3552
WIRE 5280 3552 5280 3504
WIRE 5280 3552 4960 3552
WIRE 7104 3552 5280 3552
WIRE 7168 3552 7104 3552
WIRE 2640 3600 2640 3584
WIRE 7232 3600 7232 3584
WIRE -672 3616 -672 3504
WIRE -336 3616 -336 3504
WIRE 304 3616 304 3504
WIRE 624 3616 624 3504
WIRE 944 3616 944 3392
WIRE 1264 3616 1264 3392
WIRE 1584 3616 1584 3504
WIRE 1904 3616 1904 3504
WIRE 2224 3616 2224 3504
WIRE 2720 3616 2704 3616
WIRE 3920 3616 3920 3504
WIRE 4256 3616 4256 3504
WIRE 4896 3616 4896 3504
WIRE 5216 3616 5216 3504
WIRE 5536 3616 5536 3392
WIRE 7312 3616 7296 3616
WIRE -608 3664 -608 3616
WIRE -272 3664 -272 3616
WIRE -272 3664 -608 3664
WIRE 368 3664 368 3616
WIRE 368 3664 -272 3664
WIRE 688 3664 688 3616
WIRE 688 3664 368 3664
WIRE 1008 3664 1008 3616
WIRE 1008 3664 688 3664
WIRE 1328 3664 1328 3616
WIRE 1328 3664 1008 3664
WIRE 1648 3664 1648 3616
WIRE 1648 3664 1328 3664
WIRE 1968 3664 1968 3616
WIRE 1968 3664 1648 3664
WIRE 2288 3664 2288 3616
WIRE 2288 3664 1968 3664
WIRE 2512 3664 2288 3664
WIRE 2576 3664 2512 3664
WIRE 3984 3664 3984 3616
WIRE 4320 3664 4320 3616
WIRE 4320 3664 3984 3664
WIRE 4960 3664 4960 3616
WIRE 4960 3664 4320 3664
WIRE 5280 3664 5280 3616
WIRE 5280 3664 4960 3664
WIRE 5600 3664 5600 3616
WIRE 5600 3664 5280 3664
WIRE 7104 3664 5600 3664
WIRE 7168 3664 7104 3664
WIRE 2640 3712 2640 3696
WIRE 7232 3712 7232 3696
WIRE -672 3728 -672 3616
WIRE -16 3728 -16 3504
WIRE 304 3728 304 3616
WIRE 944 3728 944 3616
WIRE 1264 3728 1264 3616
WIRE 1904 3728 1904 3616
WIRE 2224 3728 2224 3616
WIRE 2720 3728 2704 3728
WIRE 3920 3728 3920 3616
WIRE 4576 3728 4576 3504
WIRE 4896 3728 4896 3616
WIRE 5536 3728 5536 3616
WIRE 7312 3728 7296 3728
WIRE -608 3776 -608 3728
WIRE 48 3776 48 3728
WIRE 48 3776 -608 3776
WIRE 368 3776 368 3728
WIRE 368 3776 48 3776
WIRE 1008 3776 1008 3728
WIRE 1008 3776 368 3776
WIRE 1328 3776 1328 3728
WIRE 1328 3776 1008 3776
WIRE 1968 3776 1968 3728
WIRE 1968 3776 1328 3776
WIRE 2288 3776 2288 3728
WIRE 2288 3776 1968 3776
WIRE 2512 3776 2288 3776
WIRE 2576 3776 2512 3776
WIRE 3984 3776 3984 3728
WIRE 4640 3776 4640 3728
WIRE 4640 3776 3984 3776
WIRE 4960 3776 4960 3728
WIRE 4960 3776 4640 3776
WIRE 5600 3776 5600 3728
WIRE 5600 3776 4960 3776
WIRE 7104 3776 5600 3776
WIRE 7168 3776 7104 3776
WIRE 2640 3824 2640 3808
WIRE 7232 3824 7232 3808
WIRE -672 3840 -672 3728
WIRE -16 3840 -16 3728
WIRE 1264 3840 1264 3728
WIRE 1904 3840 1904 3728
WIRE 2720 3840 2704 3840
WIRE 3920 3840 3920 3728
WIRE 4576 3840 4576 3728
WIRE 7312 3840 7296 3840
WIRE -608 3888 -608 3840
WIRE 48 3888 48 3840
WIRE 48 3888 -608 3888
WIRE 1328 3888 1328 3840
WIRE 1328 3888 48 3888
WIRE 1968 3888 1968 3840
WIRE 1968 3888 1328 3888
WIRE 2512 3888 1968 3888
WIRE 2576 3888 2512 3888
WIRE 3984 3888 3984 3840
WIRE 4640 3888 4640 3840
WIRE 4640 3888 3984 3888
WIRE 7104 3888 4640 3888
WIRE 7168 3888 7104 3888
WIRE 2640 3936 2640 3920
WIRE 7232 3936 7232 3920
WIRE -672 3952 -672 3840
WIRE 624 3952 624 3616
WIRE 944 3952 944 3728
WIRE 1264 3952 1264 3840
WIRE 1904 3952 1904 3840
WIRE 2224 3952 2224 3728
WIRE 3920 3952 3920 3840
WIRE 5216 3952 5216 3616
WIRE 5536 3952 5536 3728
WIRE 2720 3968 2704 3968
WIRE 7312 3968 7296 3968
WIRE -608 4016 -608 3952
WIRE 688 4016 688 3952
WIRE 688 4016 -608 4016
WIRE 1008 4016 1008 3952
WIRE 1008 4016 688 4016
WIRE 1328 4016 1328 3952
WIRE 1328 4016 1008 4016
WIRE 1968 4016 1968 3952
WIRE 1968 4016 1328 4016
WIRE 2288 4016 2288 3952
WIRE 2288 4016 1968 4016
WIRE 2512 4016 2288 4016
WIRE 2576 4016 2512 4016
WIRE 3984 4016 3984 3952
WIRE 5280 4016 5280 3952
WIRE 5280 4016 3984 4016
WIRE 5600 4016 5600 3952
WIRE 5600 4016 5280 4016
WIRE 7104 4016 5600 4016
WIRE 7168 4016 7104 4016
WIRE -16 4064 -16 3840
WIRE 304 4064 304 3728
WIRE 624 4064 624 3952
WIRE 944 4064 944 3952
WIRE 1264 4064 1264 3952
WIRE 1904 4064 1904 3952
WIRE 2224 4064 2224 3952
WIRE 2640 4064 2640 4048
WIRE 4576 4064 4576 3840
WIRE 4896 4064 4896 3728
WIRE 5216 4064 5216 3952
WIRE 5536 4064 5536 3952
WIRE 7232 4064 7232 4048
WIRE 2720 4080 2704 4080
WIRE 7312 4080 7296 4080
WIRE 48 4128 48 4064
WIRE 368 4128 368 4064
WIRE 368 4128 48 4128
WIRE 688 4128 688 4064
WIRE 688 4128 368 4128
WIRE 1008 4128 1008 4064
WIRE 1008 4128 688 4128
WIRE 1328 4128 1328 4064
WIRE 1328 4128 1008 4128
WIRE 1968 4128 1968 4064
WIRE 1968 4128 1328 4128
WIRE 2288 4128 2288 4064
WIRE 2288 4128 1968 4128
WIRE 2512 4128 2288 4128
WIRE 2576 4128 2512 4128
WIRE 4640 4128 4640 4064
WIRE 4960 4128 4960 4064
WIRE 4960 4128 4640 4128
WIRE 5280 4128 5280 4064
WIRE 5280 4128 4960 4128
WIRE 5600 4128 5600 4064
WIRE 5600 4128 5280 4128
WIRE 7104 4128 5600 4128
WIRE 7168 4128 7104 4128
WIRE 2640 4176 2640 4160
WIRE 7232 4176 7232 4160
WIRE 2400 4448 -832 4448
WIRE 6992 4448 3760 4448
WIRE -928 4480 -1072 4480
WIRE -752 4480 -928 4480
WIRE -416 4480 -752 4480
WIRE -96 4480 -416 4480
WIRE 224 4480 -96 4480
WIRE 544 4480 224 4480
WIRE 864 4480 544 4480
WIRE 1184 4480 864 4480
WIRE 1504 4480 1184 4480
WIRE 1824 4480 1504 4480
WIRE 2144 4480 1824 4480
WIRE 3664 4480 3520 4480
WIRE 3840 4480 3664 4480
WIRE 4176 4480 3840 4480
WIRE 4496 4480 4176 4480
WIRE 4816 4480 4496 4480
WIRE 5136 4480 4816 4480
WIRE 5456 4480 5136 4480
WIRE 5776 4480 5456 4480
WIRE -752 4512 -752 4480
WIRE -416 4512 -416 4480
WIRE -96 4512 -96 4480
WIRE 224 4512 224 4480
WIRE 544 4512 544 4480
WIRE 864 4512 864 4480
WIRE 1184 4512 1184 4480
WIRE 1504 4512 1504 4480
WIRE 1824 4512 1824 4480
WIRE 2144 4512 2144 4480
WIRE 3840 4512 3840 4480
WIRE 4176 4512 4176 4480
WIRE 4496 4512 4496 4480
WIRE 4816 4512 4816 4480
WIRE 5136 4512 5136 4480
WIRE 5456 4512 5456 4480
WIRE -832 4624 -832 4448
WIRE -816 4624 -832 4624
WIRE -752 4624 -752 4592
WIRE -704 4624 -752 4624
WIRE -480 4624 -640 4624
WIRE -416 4624 -416 4592
WIRE -400 4624 -416 4624
WIRE -368 4624 -400 4624
WIRE -160 4624 -304 4624
WIRE -96 4624 -96 4592
WIRE -80 4624 -96 4624
WIRE -48 4624 -80 4624
WIRE 160 4624 16 4624
WIRE 224 4624 224 4592
WIRE 256 4624 224 4624
WIRE 272 4624 256 4624
WIRE 480 4624 336 4624
WIRE 544 4624 544 4592
WIRE 592 4624 544 4624
WIRE 800 4624 656 4624
WIRE 864 4624 864 4592
WIRE 912 4624 864 4624
WIRE 1120 4624 976 4624
WIRE 1184 4624 1184 4592
WIRE 1232 4624 1184 4624
WIRE 1440 4624 1296 4624
WIRE 1504 4624 1504 4592
WIRE 1552 4624 1504 4624
WIRE 1760 4624 1616 4624
WIRE 1824 4624 1824 4592
WIRE 1872 4624 1824 4624
WIRE 2080 4624 1936 4624
WIRE 2144 4624 2144 4592
WIRE 2176 4624 2144 4624
WIRE 2192 4624 2176 4624
WIRE 2400 4624 2400 4448
WIRE 2400 4624 2256 4624
WIRE 3760 4624 3760 4448
WIRE 3776 4624 3760 4624
WIRE 3840 4624 3840 4592
WIRE 3888 4624 3840 4624
WIRE 4112 4624 3952 4624
WIRE 4176 4624 4176 4592
WIRE 4192 4624 4176 4624
WIRE 4224 4624 4192 4624
WIRE 4432 4624 4288 4624
WIRE 4496 4624 4496 4592
WIRE 4512 4624 4496 4624
WIRE 4544 4624 4512 4624
WIRE 4752 4624 4608 4624
WIRE 4816 4624 4816 4592
WIRE 4848 4624 4816 4624
WIRE 4864 4624 4848 4624
WIRE 5072 4624 4928 4624
WIRE 5136 4624 5136 4592
WIRE 5184 4624 5136 4624
WIRE 5392 4624 5248 4624
WIRE 5456 4624 5456 4592
WIRE 5504 4624 5456 4624
WIRE 5712 4624 5568 4624
WIRE 6992 4624 6992 4448
WIRE 6992 4624 6848 4624
WIRE -1072 4656 -1072 4480
WIRE -752 4656 -752 4624
WIRE -416 4656 -416 4624
WIRE -96 4656 -96 4624
WIRE 224 4656 224 4624
WIRE 544 4656 544 4624
WIRE 864 4656 864 4624
WIRE 1184 4656 1184 4624
WIRE 1504 4656 1504 4624
WIRE 1824 4656 1824 4624
WIRE 2144 4656 2144 4624
WIRE 3520 4656 3520 4480
WIRE 3840 4656 3840 4624
WIRE 4176 4656 4176 4624
WIRE 4496 4656 4496 4624
WIRE 4816 4656 4816 4624
WIRE 5136 4656 5136 4624
WIRE 5456 4656 5456 4624
WIRE -1296 4704 -1312 4704
WIRE -1184 4704 -1216 4704
WIRE -1136 4704 -1184 4704
WIRE 3296 4704 3280 4704
WIRE 3408 4704 3376 4704
WIRE 3456 4704 3408 4704
WIRE -1184 4736 -1184 4704
WIRE -816 4736 -816 4624
WIRE -752 4736 -752 4720
WIRE -752 4736 -816 4736
WIRE -480 4736 -480 4624
WIRE -416 4736 -416 4720
WIRE -416 4736 -480 4736
WIRE -160 4736 -160 4624
WIRE -96 4736 -96 4720
WIRE -96 4736 -160 4736
WIRE 160 4736 160 4624
WIRE 224 4736 224 4720
WIRE 224 4736 160 4736
WIRE 480 4736 480 4624
WIRE 544 4736 544 4720
WIRE 544 4736 480 4736
WIRE 800 4736 800 4624
WIRE 864 4736 864 4720
WIRE 864 4736 800 4736
WIRE 1120 4736 1120 4624
WIRE 1184 4736 1184 4720
WIRE 1184 4736 1120 4736
WIRE 1440 4736 1440 4624
WIRE 1504 4736 1504 4720
WIRE 1504 4736 1440 4736
WIRE 1760 4736 1760 4624
WIRE 1824 4736 1824 4720
WIRE 1824 4736 1760 4736
WIRE 2080 4736 2080 4624
WIRE 2144 4736 2144 4720
WIRE 2144 4736 2080 4736
WIRE 3408 4736 3408 4704
WIRE 3776 4736 3776 4624
WIRE 3840 4736 3840 4720
WIRE 3840 4736 3776 4736
WIRE 4112 4736 4112 4624
WIRE 4176 4736 4176 4720
WIRE 4176 4736 4112 4736
WIRE 4432 4736 4432 4624
WIRE 4496 4736 4496 4720
WIRE 4496 4736 4432 4736
WIRE 4752 4736 4752 4624
WIRE 4816 4736 4816 4720
WIRE 4816 4736 4752 4736
WIRE 5072 4736 5072 4624
WIRE 5136 4736 5136 4720
WIRE 5136 4736 5072 4736
WIRE 5392 4736 5392 4624
WIRE 5456 4736 5456 4720
WIRE 5456 4736 5392 4736
WIRE -752 4752 -752 4736
WIRE -416 4752 -416 4736
WIRE -96 4752 -96 4736
WIRE 224 4752 224 4736
WIRE 544 4752 544 4736
WIRE 864 4752 864 4736
WIRE 1184 4752 1184 4736
WIRE 1504 4752 1504 4736
WIRE 1824 4752 1824 4736
WIRE 2144 4752 2144 4736
WIRE 3840 4752 3840 4736
WIRE 4176 4752 4176 4736
WIRE 4496 4752 4496 4736
WIRE 4816 4752 4816 4736
WIRE 5136 4752 5136 4736
WIRE 5456 4752 5456 4736
WIRE -672 4800 -688 4800
WIRE -656 4800 -672 4800
WIRE -544 4800 -576 4800
WIRE -336 4800 -352 4800
WIRE -320 4800 -336 4800
WIRE -208 4800 -240 4800
WIRE -16 4800 -32 4800
WIRE 0 4800 -16 4800
WIRE 112 4800 80 4800
WIRE 304 4800 288 4800
WIRE 320 4800 304 4800
WIRE 432 4800 400 4800
WIRE 624 4800 608 4800
WIRE 640 4800 624 4800
WIRE 752 4800 720 4800
WIRE 944 4800 928 4800
WIRE 960 4800 944 4800
WIRE 1072 4800 1040 4800
WIRE 1264 4800 1248 4800
WIRE 1280 4800 1264 4800
WIRE 1392 4800 1360 4800
WIRE 1584 4800 1568 4800
WIRE 1600 4800 1584 4800
WIRE 1712 4800 1680 4800
WIRE 1904 4800 1888 4800
WIRE 1920 4800 1904 4800
WIRE 2032 4800 2000 4800
WIRE 2224 4800 2208 4800
WIRE 2240 4800 2224 4800
WIRE 2352 4800 2320 4800
WIRE 3920 4800 3904 4800
WIRE 3936 4800 3920 4800
WIRE 4048 4800 4016 4800
WIRE 4256 4800 4240 4800
WIRE 4272 4800 4256 4800
WIRE 4384 4800 4352 4800
WIRE 4576 4800 4560 4800
WIRE 4592 4800 4576 4800
WIRE 4704 4800 4672 4800
WIRE 4896 4800 4880 4800
WIRE 4912 4800 4896 4800
WIRE 5024 4800 4992 4800
WIRE 5216 4800 5200 4800
WIRE 5232 4800 5216 4800
WIRE 5344 4800 5312 4800
WIRE 5536 4800 5520 4800
WIRE 5552 4800 5536 4800
WIRE 5664 4800 5632 4800
WIRE -1072 4816 -1072 4752
WIRE 3520 4816 3520 4752
WIRE -672 4848 -672 4800
WIRE -336 4848 -336 4800
WIRE -16 4848 -16 4800
WIRE 304 4848 304 4800
WIRE 624 4848 624 4800
WIRE 944 4848 944 4800
WIRE 1264 4848 1264 4800
WIRE 1584 4848 1584 4800
WIRE 1904 4848 1904 4800
WIRE 2224 4848 2224 4800
WIRE 3920 4848 3920 4800
WIRE 4256 4848 4256 4800
WIRE 4576 4848 4576 4800
WIRE 4896 4848 4896 4800
WIRE 5216 4848 5216 4800
WIRE 5536 4848 5536 4800
WIRE -752 4896 -752 4848
WIRE -752 4896 -784 4896
WIRE -736 4896 -752 4896
WIRE -416 4896 -416 4848
WIRE -416 4896 -448 4896
WIRE -400 4896 -416 4896
WIRE -96 4896 -96 4848
WIRE -96 4896 -128 4896
WIRE -80 4896 -96 4896
WIRE 224 4896 224 4848
WIRE 224 4896 192 4896
WIRE 240 4896 224 4896
WIRE 544 4896 544 4848
WIRE 544 4896 512 4896
WIRE 560 4896 544 4896
WIRE 864 4896 864 4848
WIRE 864 4896 832 4896
WIRE 880 4896 864 4896
WIRE 1184 4896 1184 4848
WIRE 1184 4896 1152 4896
WIRE 1200 4896 1184 4896
WIRE 1504 4896 1504 4848
WIRE 1504 4896 1472 4896
WIRE 1520 4896 1504 4896
WIRE 1824 4896 1824 4848
WIRE 1824 4896 1792 4896
WIRE 1840 4896 1824 4896
WIRE 2144 4896 2144 4848
WIRE 2144 4896 2112 4896
WIRE 2160 4896 2144 4896
WIRE 3840 4896 3840 4848
WIRE 3840 4896 3808 4896
WIRE 3856 4896 3840 4896
WIRE 4176 4896 4176 4848
WIRE 4176 4896 4144 4896
WIRE 4192 4896 4176 4896
WIRE 4496 4896 4496 4848
WIRE 4496 4896 4464 4896
WIRE 4512 4896 4496 4896
WIRE 4816 4896 4816 4848
WIRE 4816 4896 4784 4896
WIRE 4832 4896 4816 4896
WIRE 5136 4896 5136 4848
WIRE 5136 4896 5104 4896
WIRE 5152 4896 5136 4896
WIRE 5456 4896 5456 4848
WIRE 5456 4896 5424 4896
WIRE 5472 4896 5456 4896
WIRE -784 4912 -784 4896
WIRE -448 4912 -448 4896
WIRE -128 4912 -128 4896
WIRE 192 4912 192 4896
WIRE 512 4912 512 4896
WIRE 832 4912 832 4896
WIRE 1152 4912 1152 4896
WIRE 1472 4912 1472 4896
WIRE 1792 4912 1792 4896
WIRE 2112 4912 2112 4896
WIRE 3808 4912 3808 4896
WIRE 4144 4912 4144 4896
WIRE 4464 4912 4464 4896
WIRE 4784 4912 4784 4896
WIRE 5104 4912 5104 4896
WIRE 5424 4912 5424 4896
WIRE -672 4992 -672 4944
WIRE -672 4992 -784 4992
WIRE -336 4992 -336 4944
WIRE -336 4992 -448 4992
WIRE -16 4992 -16 4944
WIRE -16 4992 -128 4992
WIRE 304 4992 304 4944
WIRE 304 4992 192 4992
WIRE 624 4992 624 4944
WIRE 624 4992 512 4992
WIRE 944 4992 944 4944
WIRE 944 4992 832 4992
WIRE 1264 4992 1264 4944
WIRE 1264 4992 1152 4992
WIRE 1584 4992 1584 4944
WIRE 1584 4992 1472 4992
WIRE 1904 4992 1904 4944
WIRE 1904 4992 1792 4992
WIRE 2224 4992 2224 4944
WIRE 2224 4992 2112 4992
WIRE 3920 4992 3920 4944
WIRE 3920 4992 3808 4992
WIRE 4256 4992 4256 4944
WIRE 4256 4992 4144 4992
WIRE 4576 4992 4576 4944
WIRE 4576 4992 4464 4992
WIRE 4896 4992 4896 4944
WIRE 4896 4992 4784 4992
WIRE 5216 4992 5216 4944
WIRE 5216 4992 5104 4992
WIRE 5536 4992 5536 4944
WIRE 5536 4992 5424 4992
WIRE -672 5136 -672 4992
WIRE 3920 5136 3920 4992
WIRE 2720 5248 2704 5248
WIRE 7312 5248 7296 5248
WIRE -672 5264 -672 5136
WIRE 304 5264 304 4992
WIRE 944 5264 944 4992
WIRE 1264 5264 1264 4992
WIRE 1584 5264 1584 4992
WIRE 1904 5264 1904 4992
WIRE 2224 5264 2224 4992
WIRE 3920 5264 3920 5136
WIRE 4896 5264 4896 4992
WIRE 5536 5264 5536 4992
WIRE -16 5280 -16 4992
WIRE 4576 5280 4576 4992
WIRE 2512 5296 2464 5296
WIRE 2576 5296 2512 5296
WIRE 7104 5296 7056 5296
WIRE 7168 5296 7104 5296
WIRE -608 5328 -608 5264
WIRE 48 5328 48 5280
WIRE 48 5328 -608 5328
WIRE 368 5328 368 5264
WIRE 368 5328 48 5328
WIRE 1008 5328 1008 5264
WIRE 1008 5328 368 5328
WIRE 1328 5328 1328 5264
WIRE 1328 5328 1008 5328
WIRE 1648 5328 1648 5264
WIRE 1648 5328 1328 5328
WIRE 1968 5328 1968 5264
WIRE 1968 5328 1648 5328
WIRE 2288 5328 2288 5264
WIRE 2288 5328 1968 5328
WIRE 2464 5328 2464 5296
WIRE 2464 5328 2288 5328
WIRE 3984 5328 3984 5264
WIRE 4640 5328 4640 5280
WIRE 4640 5328 3984 5328
WIRE 4960 5328 4960 5264
WIRE 4960 5328 4640 5328
WIRE 5600 5328 5600 5264
WIRE 5600 5328 4960 5328
WIRE 7056 5328 7056 5296
WIRE 7056 5328 5600 5328
WIRE 2640 5344 2640 5328
WIRE 7232 5344 7232 5328
WIRE -672 5376 -672 5264
WIRE -336 5376 -336 4992
WIRE -16 5376 -16 5280
WIRE 304 5376 304 5264
WIRE 624 5376 624 4992
WIRE 1584 5376 1584 5264
WIRE 1904 5376 1904 5264
WIRE 2224 5376 2224 5264
WIRE 2720 5376 2704 5376
WIRE 3920 5376 3920 5264
WIRE 4256 5376 4256 4992
WIRE 4576 5376 4576 5280
WIRE 4896 5376 4896 5264
WIRE 5216 5376 5216 4992
WIRE 7312 5376 7296 5376
WIRE -608 5424 -608 5376
WIRE -272 5424 -272 5376
WIRE -272 5424 -608 5424
WIRE 48 5424 48 5376
WIRE 48 5424 -272 5424
WIRE 368 5424 368 5376
WIRE 368 5424 48 5424
WIRE 688 5424 688 5376
WIRE 688 5424 368 5424
WIRE 1648 5424 1648 5376
WIRE 1648 5424 688 5424
WIRE 1968 5424 1968 5376
WIRE 1968 5424 1648 5424
WIRE 2288 5424 2288 5376
WIRE 2288 5424 1968 5424
WIRE 2512 5424 2288 5424
WIRE 2576 5424 2512 5424
WIRE 3984 5424 3984 5376
WIRE 4320 5424 4320 5376
WIRE 4320 5424 3984 5424
WIRE 4640 5424 4640 5376
WIRE 4640 5424 4320 5424
WIRE 4960 5424 4960 5376
WIRE 4960 5424 4640 5424
WIRE 5280 5424 5280 5376
WIRE 5280 5424 4960 5424
WIRE 7104 5424 5280 5424
WIRE 7168 5424 7104 5424
WIRE 2640 5472 2640 5456
WIRE 7232 5472 7232 5456
WIRE -672 5488 -672 5376
WIRE -336 5488 -336 5376
WIRE 304 5488 304 5376
WIRE 624 5488 624 5376
WIRE 944 5488 944 5264
WIRE 1264 5488 1264 5264
WIRE 1584 5488 1584 5376
WIRE 1904 5488 1904 5376
WIRE 2224 5488 2224 5376
WIRE 2720 5488 2704 5488
WIRE 3920 5488 3920 5376