Version 4
SHEET 1 1944 680
WIRE 512 -128 512 -144
WIRE 512 -32 512 -48
WIRE 272 16 272 -32
WIRE 448 16 416 16
WIRE 416 112 416 16
WIRE 272 144 272 80
WIRE 512 160 512 64
WIRE 512 160 480 160
WIRE 560 160 512 160
WIRE 752 160 560 160
WIRE 1136 176 1136 160
WIRE 1264 176 1136 176
WIRE 1408 176 1264 176
WIRE 1520 176 1472 176
WIRE 1728 176 1520 176
WIRE 1136 192 1136 176
WIRE 272 208 272 144
WIRE 416 208 272 208
WIRE 1408 208 1408 176
WIRE 272 240 272 208
WIRE 1472 256 1472 176
WIRE 1520 336 1520 176
WIRE 1408 384 1408 304
WIRE 1456 384 1408 384
WIRE 1520 464 1520 432
FLAG 144 224 0
FLAG 144 144 vref
FLAG 272 -32 vcc
FLAG 272 320 0
FLAG 48 224 0
FLAG 48 144 vcc
FLAG 512 -144 vcc
FLAG 560 160 out
FLAG 272 144 chg
FLAG 1136 256 0
FLAG 1520 464 0
FLAG 1136 80 vcc
FLAG 1264 176 chg1
FLAG 1728 256 0
FLAG 1728 96 vcc
FLAG 752 304 0
FLAG 752 80 vcc
SYMBOL voltage 144 128 R0
WINDOW 123 0 0 Left 0
WINDOW 39 0 0 Left 0
SYMATTR InstName V1
SYMATTR Value 12
SYMBOL cap 256 16 R0
SYMATTR InstName C1
SYMATTR Value 68n
SYMBOL res 256 224 R0
SYMATTR InstName R1
SYMATTR Value {Rch}
SYMBOL voltage 48 128 R0
WINDOW 123 0 0 Left 0
WINDOW 39 0 0 Left 0
SYMATTR InstName V2
SYMATTR Value 12
SYMBOL npn 480 112 M0
SYMATTR InstName Q1
SYMATTR Value 2N3904
SYMBOL pnp 448 64 M180
SYMATTR InstName Q2
SYMATTR Value 2N3906
SYMBOL npn 1456 336 R0
SYMATTR InstName Q4
SYMATTR Value 2N3904
SYMBOL pnp 1472 304 R180
SYMATTR InstName Q5
SYMATTR Value 2N3906
SYMBOL res 1120 64 R0
SYMATTR InstName R8
SYMATTR Value 100k
SYMBOL cap 1120 192 R0
SYMATTR InstName C2
SYMATTR Value 100n
SYMBOL res 1712 80 R0
SYMATTR InstName R5
SYMATTR Value 1k
SYMBOL res 1712 160 R0
SYMATTR InstName R6
SYMATTR Value 10k
SYMBOL res 496 -144 R0
SYMATTR InstName R4
SYMATTR Value 10
SYMBOL res 736 144 R0
SYMATTR InstName R2
SYMATTR Value 1k
SYMBOL res 736 64 R0
SYMATTR InstName R3
SYMATTR Value 10k
SYMBOL diode 736 240 R0
SYMATTR InstName D1
SYMATTR Value 1N4148
TEXT 280 368 Left 2 !.param Rch=100k
TEXT 286 396 Left 2 !.tran 500m
TEXT 56 288 Left 2 !.ic V(chg)=12
TEXT 56 312 Left 2 !.ic V(chg1)=0
