Version 4
SHEET 1 1156 680
WIRE 784 -96 736 -96
WIRE 832 -96 784 -96
WIRE 496 0 496 -32
WIRE 496 0 320 0
WIRE 832 0 832 -96
WIRE 496 48 496 0
WIRE 496 48 464 48
WIRE 608 48 496 48
WIRE 704 48 688 48
WIRE 736 48 736 -16
WIRE 736 48 704 48
WIRE 768 48 736 48
WIRE 1088 96 832 96
WIRE 384 112 384 48
WIRE 608 144 608 48
WIRE 704 144 704 48
WIRE 704 144 672 144
WIRE 32 160 -16 160
WIRE 144 160 112 160
WIRE 176 160 144 160
WIRE -16 176 -16 160
WIRE 144 192 144 160
WIRE 496 208 496 192
WIRE 496 208 384 208
FLAG 144 256 0
FLAG -16 256 0
FLAG 496 288 0
FLAG 496 -112 VCC
FLAG -32 0 VCC
FLAG -32 80 0
FLAG 784 -96 VCC
FLAG 832 176 0
FLAG 1088 96 OUT
FLAG 320 96 0
SYMBOL res 128 144 R90
WINDOW 0 0 56 VBottom 2
WINDOW 3 32 56 VTop 2
SYMATTR InstName R1
SYMATTR Value 22K
SYMBOL cap 128 192 R0
SYMATTR InstName C1
SYMATTR Value 100n
SYMBOL diode 176 176 R270
WINDOW 0 32 32 VTop 2
WINDOW 3 0 32 VBottom 2
SYMATTR InstName D1
SYMATTR Value 1N4148
SYMBOL res 336 144 R90
WINDOW 0 0 56 VBottom 2
WINDOW 3 32 56 VTop 2
SYMATTR InstName R2
SYMATTR Value 100K
SYMBOL npn 320 112 R0
SYMATTR InstName Q1
SYMATTR Value 2N3904
SYMBOL voltage -16 160 R0
WINDOW 3 -44 133 Left 2
WINDOW 123 0 0 Left 0
WINDOW 39 0 0 Left 0
SYMATTR InstName V1
SYMATTR Value SINE(0 20 50)
SYMBOL res 480 192 R0
SYMATTR InstName R3
SYMATTR Value 2K2
SYMBOL res 480 -128 R0
SYMATTR InstName R4
SYMATTR Value 2K2
SYMBOL res 480 32 R0
SYMATTR InstName R5
SYMATTR Value 470
SYMBOL diode 480 128 R0
SYMATTR InstName D2
SYMATTR Value 1N4148
SYMBOL voltage -32 -16 R0
WINDOW 123 0 0 Left 0
WINDOW 39 0 0 Left 0
SYMATTR InstName V2
SYMATTR Value 12
SYMBOL pnp 768 96 M180
SYMATTR InstName Q2
SYMATTR Value 2N3906
SYMBOL res 704 32 R90
WINDOW 0 0 56 VBottom 2
WINDOW 3 32 56 VTop 2
SYMATTR InstName R6
SYMATTR Value 100K
SYMBOL cap 672 128 R90
WINDOW 0 0 32 VBottom 2
WINDOW 3 32 32 VTop 2
SYMATTR InstName C2
SYMATTR Value 220p
SYMBOL res 720 -112 R0
SYMATTR InstName R7
SYMATTR Value {Rt}
SYMBOL res 816 80 R0
SYMATTR InstName R8
SYMATTR Value 10K
SYMBOL pnp 384 96 R180
SYMATTR InstName Q3
SYMATTR Value 2N3906
SYMBOL res 480 32 R90
WINDOW 0 0 56 VBottom 2
WINDOW 3 32 56 VTop 2
SYMATTR InstName R9
SYMATTR Value 100K
TEXT -62 314 Left 2 !.tran {10*1/50}
TEXT 664 304 Left 2 !.step param Rt list 3k8 10k
TEXT 952 144 Left 2 ;Ton=8.16ms
