Version 4
SHEET 1 1432 692
WIRE -384 128 -544 128
WIRE -224 128 -384 128
WIRE -160 128 -224 128
WIRE 192 128 -160 128
WIRE 336 128 272 128
WIRE 416 128 336 128
WIRE -224 144 -224 128
WIRE -160 144 -160 128
FLAG -160 208 0
FLAG 416 208 0
FLAG 336 128 Vsup
FLAG -544 208 0
FLAG -224 208 0
FLAG -384 192 0
SYMBOL ind 176 144 R270
WINDOW 0 32 56 VTop 2
WINDOW 3 67 63 VTop 2
SYMATTR InstName L1
SYMATTR Value CBA_0402_782429261_260ohm
SYMATTR Prefix X
SYMBOL cap -176 144 R0
WINDOW 0 28 17 Left 2
WINDOW 3 -50 97 Left 2
SYMATTR InstName C1
SYMATTR Value C1206C106K3RAC
SYMATTR Prefix X
SYMBOL voltage 416 112 R0
WINDOW 123 0 0 Left 0
WINDOW 39 0 0 Left 0
SYMATTR InstName V1
SYMATTR Value 12
SYMBOL current -544 128 R0
WINDOW 0 -101 -3 Left 2
WINDOW 3 -354 32 Left 2
WINDOW 123 -127 56 Left 2
WINDOW 39 0 0 Left 0
SYMATTR InstName I1
SYMATTR Value PULSE(0 2 0 1u 1n 1n 2u)
SYMATTR Value2 AC 1
SYMBOL cap -400 128 R0
WINDOW 3 -78 100 Left 2
SYMATTR InstName C3
SYMATTR Value C0603C104K3RAC
SYMATTR Prefix X
SYMBOL cap -240 144 R0
WINDOW 0 28 17 Left 2
WINDOW 3 -8 124 Left 2
SYMATTR InstName C2
SYMATTR Value C1206C106K3RAC
SYMATTR Prefix X
TEXT 6 296 Left 2 ;.tran 200u
TEXT 196 292 Left 2 !.ac oct 100 1 1e9
TEXT 744 208 Left 2 !.SUBCKT C0603C104K3RAC 1 6\n*Temp = 25°C, Bias = 0VDC, Center Frequency = 10000 Hz\n*KEMET Model RLC Cerm\nR1 3 4 2.65222787857056\nR2 2 5 2.25999999046326\nR3 1 6 10000000000\nL1 1 2 3.7999997593019E-11\nL2 2 3 7.2199995426736E-10\nC1 4 6 9.63658450814364E-08\nC2 5 6 2.04999995231628E-12\n.ENDS
TEXT 736 -120 Left 2 !.SUBCKT C1206C106K3RAC 1 6\n*Temp = 25°C, Bias = 0VDC, Center Frequency = 10000 Hz\n*KEMET Model RLC Cerm\nR1 3 4 0.0520095974206924\nR2 2 5 0.469999998807907\nR3 1 6 125000000\nL1 1 2 3.04999997480238E-11\nL2 2 3 5.79499995212451E-10\nC1 4 6 7.7092681749491E-06\nC2 5 6 6.00000023841858E-13\n.ENDS
TEXT 752 536 Left 2 !.subckt CBA_0402_782429261_260ohm 1 2\nRp 1 2 393.732923\nCp 1 2 0.6121285421p\nRs 1 N3 0.12\nL1 N3 2 0.617816383u\n.ends CBA_0402_782429261_260ohm
