Version 4
SHEET 1 4128 2420
WIRE -16 1792 -16 1776
WIRE -80 1968 -96 1968
WIRE -16 1968 -16 1872
WIRE -240 2016 -240 1968
WIRE 64 2016 48 2016
WIRE -80 2080 -80 1968
WIRE -16 2080 -16 2064
WIRE -16 2080 -80 2080
WIRE 64 2080 64 2016
WIRE -16 2128 -16 2080
WIRE -16 2128 -160 2128
WIRE 0 2128 -16 2128
WIRE -16 2224 -16 2208
WIRE 64 2240 64 2176
WIRE -160 2272 -160 2128
FLAG -400 2032 VCC
FLAG -400 2112 0
FLAG 64 2240 0
FLAG -16 2224 0
FLAG -240 2016 vtrig
FLAG -240 2096 0
FLAG -16 1776 VCC
FLAG 144 2016 VCC
FLAG -160 2368 0
FLAG -96 2400 0
SYMBOL voltage -400 2016 R0
WINDOW 123 0 0 Left 0
WINDOW 39 0 0 Left 0
SYMATTR InstName V2
SYMATTR Value PWL(0 0 1m 12)
SYMBOL npn 0 2080 R0
SYMATTR InstName Q24
SYMATTR Value 2N3904
SYMBOL pnp 48 2064 R180
SYMATTR InstName Q34
SYMATTR Value 2N3906
SYMBOL res -32 2112 R0
SYMATTR InstName R52
SYMATTR Value 1k
SYMBOL res 160 2000 R90
WINDOW 0 0 56 VBottom 2
WINDOW 3 32 56 VTop 2
SYMATTR InstName R72
SYMATTR Value 10k
SYMBOL voltage -240 2000 R0
WINDOW 123 0 0 Left 0
WINDOW 39 0 0 Left 0
SYMATTR InstName V1
SYMATTR Value PULSE(0 5 3m 10u 10u 10u)
SYMBOL res -80 1952 R90
WINDOW 0 0 56 VBottom 2
WINDOW 3 32 56 VTop 2
SYMATTR InstName R1
SYMATTR Value 1k
SYMBOL res -32 1776 R0
SYMATTR InstName R2
SYMATTR Value 1k
SYMBOL cap -176 1952 R90
WINDOW 0 0 32 VBottom 2
WINDOW 3 32 32 VTop 2
SYMATTR InstName C1
SYMATTR Value 100n
SYMBOL npn -96 2272 M0
SYMATTR InstName Q1
SYMATTR Value 2N3904
SYMBOL voltage -96 2304 R0
WINDOW 123 0 0 Left 0
WINDOW 39 0 0 Left 0
SYMATTR InstName V3
SYMATTR Value PULSE(0 10 8m 10u 10u 10u)
TEXT -434 2264 Left 2 !.tran 10m
