Version 4
SHEET 1 3624 932
WIRE -64 -288 -64 -336
WIRE -256 -240 -256 -256
WIRE -176 -240 -256 -240
WIRE -128 -240 -176 -240
WIRE 1680 -224 1680 -368
WIRE -256 -176 -256 -240
WIRE -176 -176 -176 -240
WIRE -64 -144 -64 -192
WIRE -16 -144 -64 -144
WIRE -64 -128 -64 -144
WIRE 1680 -112 1680 -160
WIRE -176 -96 -176 -112
WIRE 1616 -64 1552 -64
WIRE -64 -32 -64 -48
WIRE 1552 -16 1552 -64
WIRE 1680 16 1680 -16
WIRE 1520 288 528 288
WIRE 432 320 288 320
WIRE 608 320 432 320
WIRE 944 320 608 320
WIRE 1264 320 944 320
WIRE 608 352 608 320
WIRE 944 352 944 320
WIRE 1264 352 1264 320
WIRE 528 464 528 288
WIRE 544 464 528 464
WIRE 608 464 608 432
WIRE 624 464 608 464
WIRE 656 464 624 464
WIRE 880 464 720 464
WIRE 944 464 944 432
WIRE 960 464 944 464
WIRE 992 464 960 464
WIRE 1200 464 1056 464
WIRE 1264 464 1264 432
WIRE 1280 464 1264 464
WIRE 1312 464 1280 464
WIRE 1520 464 1520 288
WIRE 1520 464 1376 464
WIRE 288 496 288 320
WIRE 608 496 608 464
WIRE 944 496 944 464
WIRE 1264 496 1264 464
WIRE -48 544 -48 528
WIRE 64 544 -48 544
WIRE 176 544 144 544
WIRE 224 544 176 544
WIRE -48 560 -48 544
WIRE 176 576 176 544
WIRE 544 576 544 464
WIRE 560 576 544 576
WIRE 608 576 608 560
WIRE 608 576 560 576
WIRE 880 576 880 464
WIRE 896 576 880 576
WIRE 944 576 944 560
WIRE 944 576 896 576
WIRE 1200 576 1200 464
WIRE 1216 576 1200 576
WIRE 1264 576 1264 560
WIRE 1264 576 1216 576
WIRE 608 592 608 576
WIRE 944 592 944 576
WIRE 1264 592 1264 576
WIRE 688 640 672 640
WIRE 704 640 688 640
WIRE 816 640 784 640
WIRE 1024 640 1008 640
WIRE 1040 640 1024 640
WIRE 1152 640 1120 640
WIRE 1344 640 1328 640
WIRE 1360 640 1344 640
WIRE 1472 640 1440 640
WIRE 288 656 288 592
WIRE 688 688 688 640
WIRE 1024 688 1024 640
WIRE 1344 688 1344 640
WIRE 608 736 608 688
WIRE 608 736 576 736
WIRE 624 736 608 736
WIRE 944 736 944 688
WIRE 944 736 912 736
WIRE 960 736 944 736
WIRE 1264 736 1264 688
WIRE 1264 736 1232 736
WIRE 1280 736 1264 736
WIRE 576 752 576 736
WIRE 912 752 912 736
WIRE 1232 752 1232 736
WIRE 672 832 576 832
WIRE 688 832 688 784
WIRE 688 832 672 832
WIRE 1008 832 912 832
WIRE 1024 832 1024 784
WIRE 1024 832 1008 832
WIRE 1328 832 1232 832
WIRE 1344 832 1344 784
WIRE 1344 832 1328 832
FLAG -368 -96 VCC
FLAG -368 -16 0
FLAG -64 -336 VCC
FLAG -64 -32 0
FLAG -256 -96 0
FLAG -256 -336 VCC
FLAG -176 -96 0
FLAG -16 -144 Vref
FLAG 1552 64 0
FLAG 1680 96 0
FLAG 1680 -368 Vd
FLAG -512 -16 0
FLAG -512 -96 Vd
FLAG 1488 -64 O1
FLAG -48 528 Clk
FLAG -48 640 0
FLAG 176 656 0
FLAG 288 656 0
FLAG 288 320 RST
FLAG 576 912 0
FLAG 816 640 Vref
FLAG 912 912 0
FLAG 1152 640 Vref
FLAG 1232 912 0
FLAG 1472 640 Vref
FLAG 560 576 S1
FLAG 896 576 S2
FLAG 1216 576 S3
FLAG 672 832 O1
FLAG 1008 832 O2
FLAG 1328 832 O3
FLAG 624 464 T1
FLAG 960 464 T2
FLAG 1280 464 T3
FLAG 432 240 VCC
SYMBOL voltage -368 -112 R0
WINDOW 123 0 0 Left 0
WINDOW 39 0 0 Left 0
SYMATTR InstName V2
SYMATTR Value 12
SYMBOL npn -128 -288 R0
SYMATTR InstName Q3
SYMATTR Value 2N3904
SYMBOL res -80 -144 R0
SYMATTR InstName R6
SYMATTR Value 10k
SYMBOL cap -192 -176 R0
SYMATTR InstName C3
SYMATTR Value 10µ
SYMBOL res -272 -192 R0
SYMATTR InstName R7
SYMATTR Value 10k
SYMBOL res -272 -352 R0
SYMATTR InstName R8
SYMATTR Value 3k9
SYMBOL LED 1664 -224 R0
SYMATTR InstName D1
SYMATTR Value LXHL-BW02
SYMATTR Description Diode
SYMATTR Type diode
SYMBOL npn 1616 -112 R0
SYMATTR InstName Q1
SYMATTR Value 2N5550
SYMBOL res 1664 0 R0
SYMATTR InstName R1
SYMATTR Value 10k
SYMBOL res 1536 -32 R0
SYMATTR InstName R2
SYMATTR Value 100k
SYMBOL voltage -512 -112 R0
WINDOW 123 0 0 Left 0
WINDOW 39 0 0 Left 0
SYMATTR InstName V1
SYMATTR Value 80
SYMBOL diode 1488 -48 R270
WINDOW 0 32 32 VTop 2
WINDOW 3 0 32 VBottom 2
SYMATTR InstName D2
SYMATTR Value 1N4148
SYMBOL voltage -48 544 R0
WINDOW 123 0 0 Left 0
WINDOW 39 0 0 Left 0
WINDOW 3 -351 160 Left 2
SYMATTR InstName V3
SYMATTR Value PULSE(0 12 1m 10u 10u 50u 150u)
SYMBOL res 160 528 R90
WINDOW 0 0 56 VBottom 2
WINDOW 3 32 56 VTop 2
SYMATTR InstName R3
SYMATTR Value 10k
SYMBOL res 192 672 R180
WINDOW 0 36 76 Left 2
WINDOW 3 36 40 Left 2
SYMATTR InstName R4
SYMATTR Value 10k
SYMBOL npn 224 496 R0
SYMATTR InstName Q2
SYMATTR Value 2N3904
SYMBOL res 592 336 R0
SYMATTR InstName R5
SYMATTR Value 120
SYMBOL cap 720 448 R90
WINDOW 0 0 32 VBottom 2
WINDOW 3 32 32 VTop 2
SYMATTR InstName C1
SYMATTR Value 10n
SYMBOL diode 592 496 R0
SYMATTR InstName D3
SYMATTR Value 1N4148
SYMBOL pnp 672 688 R180
SYMATTR InstName Q4
SYMATTR Value 2N3906
SYMBOL npn 624 688 R0
SYMATTR InstName Q5
SYMATTR Value 2N3904
SYMBOL res 560 816 R0
SYMATTR InstName R9
SYMATTR Value 120
SYMBOL res 560 736 R0
SYMATTR InstName R10
SYMATTR Value 10k
SYMBOL res 800 624 R90
WINDOW 0 0 56 VBottom 2
WINDOW 3 32 56 VTop 2
SYMATTR InstName R11
SYMATTR Value 10k
SYMBOL res 928 336 R0
SYMATTR InstName R12
SYMATTR Value 120
SYMBOL cap 1056 448 R90
WINDOW 0 0 32 VBottom 2
WINDOW 3 32 32 VTop 2
SYMATTR InstName C2
SYMATTR Value 10n
SYMBOL diode 928 496 R0
SYMATTR InstName D4
SYMATTR Value 1N4148
SYMBOL pnp 1008 688 R180
SYMATTR InstName Q6
SYMATTR Value 2N3906
SYMBOL npn 960 688 R0
SYMATTR InstName Q7
SYMATTR Value 2N3904
SYMBOL res 896 816 R0
SYMATTR InstName R13
SYMATTR Value 120
SYMBOL res 896 736 R0
SYMATTR InstName R14
SYMATTR Value 10k
SYMBOL res 1136 624 R90
WINDOW 0 0 56 VBottom 2
WINDOW 3 32 56 VTop 2
SYMATTR InstName R15
SYMATTR Value 10k
SYMBOL res 1248 336 R0
SYMATTR InstName R16
SYMATTR Value 120
SYMBOL cap 1376 448 R90
WINDOW 0 0 32 VBottom 2
WINDOW 3 32 32 VTop 2
SYMATTR InstName C4
SYMATTR Value 10n
SYMBOL diode 1248 496 R0
SYMATTR InstName D5
SYMATTR Value 1N4148
SYMBOL pnp 1328 688 R180
SYMATTR InstName Q8
SYMATTR Value 2N3906
SYMBOL npn 1280 688 R0
SYMATTR InstName Q9
SYMATTR Value 2N3904
SYMBOL res 1216 816 R0
SYMATTR InstName R17
SYMATTR Value 120
SYMBOL res 1216 736 R0
SYMATTR InstName R18
SYMATTR Value 10k
SYMBOL res 1456 624 R90
WINDOW 0 0 56 VBottom 2
WINDOW 3 32 56 VTop 2
SYMATTR InstName R19
SYMATTR Value 10k
SYMBOL res 416 224 R0
SYMATTR InstName R20
SYMATTR Value 270
TEXT -344 256 Left 2 !.tran 0 2m 1m
TEXT -8 776 Left 2 !.ic V(T1,S2)=-12
