Version 4
SHEET 1 1404 680
WIRE -80 32 -240 32
WIRE 496 64 496 16
WIRE -80 112 -80 96
WIRE 112 160 112 128
WIRE 496 176 496 144
WIRE 752 176 496 176
WIRE 832 176 816 176
WIRE 880 176 832 176
WIRE 944 176 880 176
WIRE 1072 176 944 176
WIRE 224 208 176 208
WIRE 288 208 224 208
WIRE 496 208 496 176
WIRE 496 208 432 208
WIRE 496 256 496 208
WIRE 112 304 112 256
WIRE 432 304 112 304
WIRE 768 384 320 384
WIRE 880 384 880 176
WIRE 880 384 832 384
WIRE 112 400 112 304
WIRE 496 400 496 352
WIRE 320 448 320 384
WIRE 320 448 176 448
WIRE 368 448 320 448
WIRE 496 448 496 400
WIRE 496 448 448 448
WIRE 112 544 112 496
WIRE 496 544 496 528
FLAG -240 112 0
FLAG -80 112 0
FLAG 496 16 VCC
FLAG -240 32 VCC
FLAG 944 240 0
FLAG 832 176 vled
FLAG 496 544 0
FLAG 496 400 Isense
FLAG 112 544 0
FLAG 112 48 VCC
FLAG 224 288 0
FLAG 1072 256 0
SYMBOL voltage -240 16 R0
WINDOW 123 0 0 Left 0
WINDOW 39 24 124 Left 2
SYMATTR SpiceLine Rser=1
SYMATTR InstName V1
SYMATTR Value 12
SYMBOL cap -96 32 R0
SYMATTR InstName C1
SYMATTR Value 10µ
SYMBOL ind2 480 48 R0
SYMATTR InstName L1
SYMATTR Value 100µ
SYMATTR Type ind
SYMBOL npn 432 256 R0
SYMATTR InstName Q1
SYMATTR Value 2N5550
SYMBOL cap 928 176 R0
SYMATTR InstName C2
SYMATTR Value 1µ
SYMBOL res 480 432 R0
SYMATTR InstName R1
SYMATTR Value 5.1
SYMBOL npn 176 400 M0
SYMATTR InstName Q2
SYMATTR Value 2N3904
SYMBOL res 464 432 R90
WINDOW 0 0 56 VBottom 2
WINDOW 3 32 56 VTop 2
SYMATTR InstName R2
SYMATTR Value 470
SYMBOL pnp 176 256 R180
SYMATTR InstName Q3
SYMATTR Value 2N3906
SYMBOL cap 352 192 R90
WINDOW 0 0 32 VBottom 2
WINDOW 3 32 32 VTop 2
SYMATTR InstName C3
SYMATTR Value 1n
SYMBOL res 448 192 R90
WINDOW 0 0 56 VBottom 2
WINDOW 3 32 56 VTop 2
SYMATTR InstName R3
SYMATTR Value 10k
SYMBOL res 96 32 R0
SYMATTR InstName R4
SYMATTR Value 1k
SYMBOL res 208 192 R0
SYMATTR InstName R5
SYMATTR Value 100k
SYMBOL zener 768 400 R270
WINDOW 0 32 32 VTop 2
WINDOW 3 0 32 VBottom 2
SYMATTR InstName D3
SYMATTR Value 1N5373B
SYMATTR Description Diode
SYMATTR Type diode
SYMBOL current 1072 176 R0
WINDOW 123 0 0 Left 0
WINDOW 39 0 0 Left 0
SYMATTR InstName I1
SYMATTR Value PWL(0 0 10m 0 11m 12m)
SYMBOL diode 752 192 R270
WINDOW 0 32 32 VTop 2
WINDOW 3 0 32 VBottom 2
SYMATTR InstName D1
SYMATTR Value MMSD4148
TEXT -304 568 Left 2 !.tran 20m startup
