Version 4
SHEET 1 1448 680
WIRE 112 96 64 96
WIRE 176 96 112 96
WIRE 256 96 176 96
WIRE 352 96 256 96
WIRE 464 96 352 96
WIRE 624 96 464 96
WIRE 672 96 624 96
WIRE 832 96 768 96
WIRE 864 96 832 96
WIRE 960 96 864 96
WIRE 624 160 624 96
WIRE 64 176 64 160
WIRE 80 176 64 176
WIRE 176 176 176 160
WIRE 176 176 160 176
WIRE 64 192 64 176
WIRE 176 192 176 176
WIRE 464 224 464 176
WIRE 672 224 464 224
WIRE 112 256 64 256
WIRE 176 256 112 256
WIRE 464 256 464 224
WIRE 112 272 112 256
FLAG 112 272 0
FLAG 112 96 Vraw
FLAG 352 160 0
FLAG 464 320 0
FLAG 672 352 0
FLAG 864 160 0
FLAG 960 176 0
FLAG 832 96 Vout
FLAG 256 176 0
SYMBOL diode 80 160 R180
WINDOW 0 24 64 Left 2
WINDOW 3 24 0 Left 2
SYMATTR InstName D1
SYMBOL diode 192 160 R180
WINDOW 0 -28 63 Left 2
WINDOW 3 -15 7 Left 2
SYMATTR InstName D2
SYMBOL diode 80 256 R180
WINDOW 0 24 64 Left 2
WINDOW 3 24 0 Left 2
SYMATTR InstName D3
SYMBOL diode 192 256 R180
WINDOW 0 -28 65 Left 2
WINDOW 3 -19 7 Left 2
SYMATTR InstName D4
SYMBOL voltage 64 176 R270
WINDOW 0 32 56 VTop 2
WINDOW 3 -117 51 VBottom 2
WINDOW 123 0 0 Left 0
WINDOW 39 0 0 Left 0
SYMATTR InstName V2
SYMATTR Value SINE(0 20 50)
SYMBOL cap 336 96 R0
SYMATTR InstName C1
SYMATTR Value {Craw}
SYMBOL res 448 80 R0
SYMATTR InstName R1
SYMATTR Value 1k
SYMBOL cap 448 256 R0
SYMATTR InstName C2
SYMATTR Value 10µ
SYMBOL npn 672 160 R270
SYMATTR InstName Q1
SYMATTR Value 2N3055
SYMBOL npn 624 224 R270
SYMATTR InstName Q2
SYMATTR Value 2N3904
SYMBOL diode 656 224 R0
SYMATTR InstName D5
SYMATTR Value 1N4148
SYMBOL zener 688 352 R180
WINDOW 0 24 64 Left 2
WINDOW 3 24 0 Left 2
SYMATTR InstName D6
SYMATTR Value BZX84C12L
SYMATTR Description Diode
SYMATTR Type diode
SYMBOL cap 848 96 R0
SYMATTR InstName C3
SYMATTR Value 50µ
SYMBOL current 960 96 R0
WINDOW 123 0 0 Left 0
WINDOW 39 0 0 Left 0
SYMATTR InstName I1
SYMATTR Value {Iload}
SYMBOL current 256 96 R0
WINDOW 123 0 0 Left 0
WINDOW 39 0 0 Left 0
SYMATTR InstName I2
SYMATTR Value 135m
TEXT 22 376 Left 2 !.tran 2
TEXT 848 248 Left 2 !.step param Iload 0 100m 10m
TEXT 256 216 Left 2 ;.param Craw 40u
TEXT 856 288 Left 2 !.meas TRAN Vinpp PP V(vraw) FROM 1.5 TO 2
TEXT 856 312 Left 2 !.meas TRAN Vin_min MIN V(vraw) FROM 1.5 TO 2
TEXT 856 336 Left 2 !.meas TRAN Voutpp PP V(Vout) FROM 1.5 TO 2
TEXT 856 360 Left 2 !.meas TRAN Vout_min MIN V(Vout) FROM 1.5 TO 2
TEXT 208 384 Left 2 !.step param Craw list 60u 280u
