Version 4
SHEET 1 3624 680
WIRE 608 -48 528 -48
WIRE 528 -32 528 -48
WIRE 272 0 144 0
WIRE 272 48 272 0
WIRE 528 80 528 48
WIRE 848 80 784 80
WIRE 848 96 848 80
WIRE 352 128 272 128
WIRE 464 128 432 128
WIRE 608 192 272 192
WIRE 672 192 672 80
WIRE 672 192 608 192
FLAG -32 0 VCC
FLAG -32 80 0
FLAG 528 176 0
FLAG 848 176 0
FLAG 672 -160 VCC
FLAG 144 80 0
FLAG 608 192 a
SYMBOL voltage -32 -16 R0
WINDOW 123 0 0 Left 0
WINDOW 39 0 0 Left 0
SYMATTR InstName V2
SYMATTR Value 12
SYMBOL res 256 32 R0
SYMATTR InstName R1
SYMATTR Value 500k
SYMBOL cap 256 128 R0
SYMATTR InstName C1
SYMATTR Value 220n
SYMBOL npn 464 80 R0
SYMATTR InstName Q1
SYMATTR Value 2N3904
SYMBOL res 512 -48 R0
SYMATTR InstName R2
SYMATTR Value 100
SYMBOL res 656 -16 R0
SYMATTR InstName R3
SYMATTR Value 100
SYMBOL res 832 80 R0
SYMATTR InstName R4
SYMATTR Value 10k
SYMBOL cap 784 64 R90
WINDOW 0 0 32 VBottom 2
WINDOW 3 32 32 VTop 2
SYMATTR InstName C2
SYMATTR Value 1µ
SYMBOL pnp 608 0 M180
SYMATTR InstName Q2
SYMATTR Value 2N3906
SYMBOL diode 656 -160 R0
SYMATTR InstName D1
SYMATTR Value 1N4148
SYMBOL res 448 112 R90
WINDOW 0 0 56 VBottom 2
WINDOW 3 32 56 VTop 2
SYMATTR InstName R5
SYMATTR Value 100
SYMBOL voltage 144 -16 R0
WINDOW 123 0 0 Left 0
WINDOW 39 0 0 Left 0
WINDOW 3 -7 -43 Left 2
SYMATTR Value PWL(0 0 9.999m 0 10m 12)
SYMATTR InstName V1
TEXT -344 256 Left 2 !.tran {50*1/50}
TEXT 56 160 Left 2 !.ic V(a)=0
