Version 4
SHEET 1 2452 680
WIRE 2016 -112 1968 -112
WIRE 2064 -112 2016 -112
WIRE 784 -96 736 -96
WIRE 832 -96 784 -96
WIRE 1728 -16 1728 -48
WIRE 1728 -16 1552 -16
WIRE 2064 -16 2064 -112
WIRE 496 0 496 -32
WIRE 496 0 320 0
WIRE 832 0 832 -96
WIRE 1728 32 1728 -16
WIRE 1728 32 1696 32
WIRE 1840 32 1728 32
WIRE 1936 32 1920 32
WIRE 1968 32 1968 -32
WIRE 1968 32 1936 32
WIRE 2000 32 1968 32
WIRE 496 48 496 0
WIRE 496 48 464 48
WIRE 608 48 496 48
WIRE 704 48 688 48
WIRE 736 48 736 -16
WIRE 736 48 704 48
WIRE 768 48 736 48
WIRE 2320 80 2064 80
WIRE 1088 96 832 96
WIRE 1616 96 1616 32
WIRE 384 112 384 48
WIRE 1840 128 1840 32
WIRE 1936 128 1936 32
WIRE 1936 128 1904 128
WIRE 608 144 608 48
WIRE 704 144 704 48
WIRE 704 144 672 144
WIRE 1264 144 1216 144
WIRE 1376 144 1344 144
WIRE 1408 144 1376 144
WIRE 32 160 -16 160
WIRE 144 160 112 160
WIRE 176 160 144 160
WIRE -16 176 -16 160
WIRE 1376 176 1376 144
WIRE 144 192 144 160
WIRE 1728 192 1728 176
WIRE 1728 192 1616 192
WIRE 496 208 496 192
WIRE 496 208 384 208
FLAG 144 256 0
FLAG -16 256 0
FLAG 496 288 0
FLAG 496 -112 VCC
FLAG -32 0 VCC
FLAG -32 80 0
FLAG 784 -96 VCC
FLAG 832 176 0
FLAG 1088 96 OUT
FLAG 320 96 0
FLAG 1376 240 0
FLAG 1728 272 0
FLAG 1728 -128 VCC1
FLAG 1200 -16 VCC1
FLAG 1200 64 0
FLAG 2016 -112 VCC1
FLAG 2064 160 0
FLAG 2320 80 OUT_new
FLAG 1552 80 0
FLAG 1216 144 in
FLAG -16 160 in
SYMBOL res 128 144 R90
WINDOW 0 0 56 VBottom 2
WINDOW 3 32 56 VTop 2
SYMATTR InstName R1
SYMATTR Value 22K
SYMBOL cap 128 192 R0
SYMATTR InstName C1
SYMATTR Value 100n
SYMBOL diode 176 176 R270
WINDOW 0 32 32 VTop 2
WINDOW 3 0 32 VBottom 2
SYMATTR InstName D1
SYMATTR Value 1N4148
SYMBOL res 336 144 R90
WINDOW 0 0 56 VBottom 2
WINDOW 3 32 56 VTop 2
SYMATTR InstName R2
SYMATTR Value 100K
SYMBOL npn 320 112 R0
SYMATTR InstName Q1
SYMATTR Value 2N3904
SYMBOL voltage -16 160 R0
WINDOW 3 -44 133 Left 2
WINDOW 123 0 0 Left 0
WINDOW 39 0 0 Left 0
SYMATTR Value SINE(0 20 50)
SYMATTR InstName V1
SYMBOL res 480 192 R0
SYMATTR InstName R3
SYMATTR Value 2K2
SYMBOL res 480 -128 R0
SYMATTR InstName R4
SYMATTR Value 2K2
SYMBOL res 480 32 R0
SYMATTR InstName R5
SYMATTR Value 470
SYMBOL diode 480 128 R0
SYMATTR InstName D2
SYMATTR Value 1N4148
SYMBOL voltage -32 -16 R0
WINDOW 123 0 0 Left 0
WINDOW 39 0 0 Left 0
SYMATTR InstName V2
SYMATTR Value 12
SYMBOL pnp 768 96 M180
SYMATTR InstName Q2
SYMATTR Value 2N3906
SYMBOL res 704 32 R90
WINDOW 0 0 56 VBottom 2
WINDOW 3 32 56 VTop 2
SYMATTR InstName R6
SYMATTR Value 47k
SYMBOL cap 672 128 R90
WINDOW 0 0 32 VBottom 2
WINDOW 3 32 32 VTop 2
SYMATTR InstName C2
SYMATTR Value 220p
SYMBOL res 720 -112 R0
SYMATTR InstName R7
SYMATTR Value 3k8
SYMBOL res 816 80 R0
SYMATTR InstName R8
SYMATTR Value 10K
SYMBOL pnp 384 96 R180
SYMATTR InstName Q3
SYMATTR Value 2N3906
SYMBOL res 480 32 R90
WINDOW 0 0 56 VBottom 2
WINDOW 3 32 56 VTop 2
SYMATTR InstName R9
SYMATTR Value 100K
SYMBOL res 1360 128 R90
WINDOW 0 0 56 VBottom 2
WINDOW 3 32 56 VTop 2
SYMATTR InstName R10
SYMATTR Value 100k
SYMBOL cap 1360 176 R0
SYMATTR InstName C3
SYMATTR Value 10n
SYMBOL diode 1408 160 R270
WINDOW 0 32 32 VTop 2
WINDOW 3 0 32 VBottom 2
SYMATTR InstName D3
SYMATTR Value 1N4148
SYMBOL res 1568 128 R90
WINDOW 0 0 56 VBottom 2
WINDOW 3 32 56 VTop 2
SYMATTR InstName R11
SYMATTR Value 100K
SYMBOL npn 1552 96 R0
SYMATTR InstName Q4
SYMATTR Value 2N3904
SYMBOL res 1712 176 R0
SYMATTR InstName R12
SYMATTR Value 10k
SYMBOL res 1712 -144 R0
SYMATTR InstName R13
SYMATTR Value 10k
SYMBOL res 1712 16 R0
SYMATTR InstName R14
SYMATTR Value 1k
SYMBOL diode 1712 112 R0
SYMATTR InstName D4
SYMATTR Value 1N4148
SYMBOL voltage 1200 -32 R0
WINDOW 123 0 0 Left 0
WINDOW 39 0 0 Left 0
SYMATTR InstName V4
SYMATTR Value 12
SYMBOL pnp 2000 80 M180
SYMATTR InstName Q5
SYMATTR Value 2N3906
SYMBOL res 1936 16 R90
WINDOW 0 0 56 VBottom 2
WINDOW 3 32 56 VTop 2
SYMATTR InstName R15
SYMATTR Value 100k
SYMBOL cap 1904 112 R90
WINDOW 0 0 32 VBottom 2
WINDOW 3 32 32 VTop 2
SYMATTR InstName C4
SYMATTR Value 220p
SYMBOL res 1952 -128 R0
SYMATTR InstName R16
SYMATTR Value 10k
SYMBOL res 2048 64 R0
SYMATTR InstName R17
SYMATTR Value 10K
SYMBOL pnp 1616 80 R180
SYMATTR InstName Q6
SYMATTR Value 2N3906
SYMBOL res 1712 16 R90
WINDOW 0 0 56 VBottom 2
WINDOW 3 32 56 VTop 2
SYMATTR InstName R18
SYMATTR Value 100k
TEXT -64 312 Left 2 !.tran {10*1/50}
TEXT 952 144 Left 2 ;Ton=8.16ms
TEXT 2184 128 Left 2 ;Ton=8.16ms
