Version 4
SHEET 1 1188 680
WIRE 208 80 128 80
WIRE 304 80 208 80
WIRE 384 80 304 80
WIRE 432 80 384 80
WIRE 128 192 128 144
WIRE 208 192 208 144
WIRE 128 272 128 192
WIRE 208 272 208 192
WIRE 160 336 128 336
WIRE 208 336 160 336
WIRE 160 352 160 336
FLAG 160 352 0
FLAG 304 144 0
FLAG 432 160 0
FLAG 384 80 Vout
SYMBOL voltage 224 192 R90
WINDOW 0 -32 56 VBottom 2
WINDOW 3 -12 213 VTop 2
WINDOW 123 0 0 Left 0
WINDOW 39 13 182 VTop 2
SYMATTR InstName V1
SYMATTR Value SINE(0 17.2 50)
SYMATTR SpiceLine Rser=8
SYMBOL diode 144 144 R180
WINDOW 0 24 64 Left 2
WINDOW 3 24 0 Left 2
SYMATTR InstName D1
SYMBOL diode 224 144 R180
WINDOW 0 24 64 Left 2
WINDOW 3 24 0 Left 2
SYMATTR InstName D2
SYMBOL diode 144 336 R180
WINDOW 0 24 64 Left 2
WINDOW 3 24 0 Left 2
SYMATTR InstName D3
SYMBOL diode 224 336 R180
WINDOW 0 24 64 Left 2
WINDOW 3 24 0 Left 2
SYMATTR InstName D4
SYMBOL cap 288 80 R0
SYMATTR InstName C1
SYMATTR Value 470µ
SYMBOL res 416 64 R0
SYMATTR InstName R1
SYMATTR Value {Load}
TEXT 340 312 Left 2 !.tran 2
TEXT 336 216 Left 2 !.meas TRAN Vout AVG V(Vout) FROM 1.9 TO 2
TEXT 336 248 Left 2 !.meas TRAN Iout AVG I(R1) FROM 1.9 TO 2
TEXT 336 280 Left 2 !.meas TRAN Vout_pp PP V(Vout) FROM 1.9 TO 2
TEXT 344 352 Left 2 ;.param Load=10Meg
TEXT 344 376 Left 2 ;.step param Load list 10Meg 210.6 110.6 64.2 60.6 30 24.2 20.6 14.2 3.6
