Version 4
SHEET 1 1232 680
WIRE 720 0 448 0
WIRE -112 16 -384 16
WIRE 448 16 448 0
WIRE -384 80 -384 16
WIRE 448 96 448 80
WIRE 720 144 720 0
WIRE 720 144 608 144
WIRE -112 160 -112 16
WIRE -112 160 -224 160
WIRE 448 192 448 176
WIRE 544 192 448 192
WIRE 720 192 720 144
WIRE -384 208 -384 144
WIRE -288 208 -384 208
WIRE -112 208 -112 160
WIRE 448 224 448 192
WIRE -384 240 -384 208
WIRE 656 240 608 240
WIRE -176 256 -224 256
WIRE 448 320 448 304
WIRE 720 320 720 288
WIRE 720 320 448 320
WIRE -384 336 -384 320
WIRE -112 336 -112 304
WIRE -112 336 -384 336
WIRE 448 352 448 320
WIRE -384 368 -384 336
FLAG -384 368 0
FLAG -384 -64 0
FLAG -112 16 Vzen
FLAG 448 352 0
FLAG 448 -80 0
FLAG 720 0 Vmult
SYMBOL res -400 224 R0
SYMATTR InstName R4
SYMATTR Value 1k
SYMBOL npn -176 208 R0
SYMATTR InstName Q3
SYMATTR Value 2N3055
SYMBOL current -384 -64 R0
WINDOW 123 0 0 Left 0
WINDOW 39 0 0 Left 0
SYMATTR InstName I2
SYMATTR Value {Isnk}
SYMBOL npn -288 160 R0
SYMATTR InstName Q4
SYMATTR Value 2N2222
SYMBOL zener -368 144 R180
WINDOW 0 24 64 Left 2
WINDOW 3 24 0 Left 2
SYMATTR InstName D1
SYMATTR Value DFLZ33
SYMATTR Description Diode
SYMATTR Type diode
SYMBOL res 432 208 R0
SYMATTR InstName R1
SYMATTR Value 1k
SYMBOL npn 656 192 R0
SYMATTR InstName Q1
SYMATTR Value 2N3055
SYMBOL current 448 -80 R0
WINDOW 123 0 0 Left 0
WINDOW 39 0 0 Left 0
SYMATTR InstName I1
SYMATTR Value {Isnk}
SYMBOL npn 544 144 R0
SYMATTR InstName Q2
SYMATTR Value 2N2222
SYMBOL zener 464 80 R180
WINDOW 0 24 64 Left 2
WINDOW 3 24 0 Left 2
SYMATTR InstName D2
SYMATTR Value UDZV12B
SYMATTR Description Diode
SYMATTR Type diode
SYMBOL res 432 80 R0
SYMATTR InstName R2
SYMATTR Value {Rt}
TEXT -296 424 Left 2 !.op
TEXT -296 392 Left 2 !.step param Isnk 100m 2 100m
TEXT 904 216 Left 2 !.step param Rt list 1k 13k
