Version 4
SHEET 1 1168 680
WIRE 208 96 -32 96
WIRE 400 96 288 96
WIRE 448 96 400 96
WIRE 560 96 512 96
WIRE 704 96 560 96
WIRE -32 128 -32 96
WIRE 400 128 400 96
WIRE 704 128 704 96
WIRE 864 128 784 128
WIRE 784 144 784 128
WIRE 784 144 752 144
WIRE 784 192 752 192
WIRE 352 208 288 208
WIRE 784 208 784 192
WIRE 864 208 784 208
WIRE 288 224 288 208
WIRE 704 224 704 208
WIRE -32 240 -32 208
WIRE 400 240 400 224
WIRE 288 320 288 304
WIRE 704 320 704 304
FLAG 288 320 0
FLAG 400 320 0
FLAG -32 240 0
FLAG 704 320 0
FLAG 560 160 0
SYMBOL voltage -32 112 R0
WINDOW 123 0 0 Left 0
WINDOW 39 0 0 Left 0
SYMATTR InstName V1
SYMATTR Value 12
SYMBOL voltage 288 208 R0
WINDOW 3 -459 72 Left 2
WINDOW 123 0 0 Left 0
WINDOW 39 0 0 Left 0
SYMATTR InstName V2
SYMATTR Value PULSE(0 12 0n 250n 250n 15u 19.2u)
SYMBOL nmos 352 128 R0
SYMATTR InstName M1
SYMATTR Value BSC057N08NS3
SYMBOL res 384 224 R0
SYMATTR InstName R1
SYMATTR Value .12
SYMBOL ind 192 112 R270
WINDOW 0 32 56 VTop 2
WINDOW 3 5 56 VBottom 2
SYMATTR InstName L1
SYMATTR Value 100µ
SYMBOL cap 544 96 R0
SYMATTR InstName C1
SYMATTR Value 288µ
SYMBOL res 688 208 R0
SYMATTR InstName R2
SYMATTR Value 1
SYMBOL schottky 448 112 R270
WINDOW 0 32 32 VTop 2
WINDOW 3 0 32 VBottom 2
SYMATTR InstName D1
SYMATTR Value MBR20100CT
SYMATTR Description Diode
SYMATTR Type diode
SYMBOL voltage 864 224 R180
WINDOW 0 24 96 Left 2
WINDOW 3 -301 -21 Left 2
WINDOW 123 0 0 Left 0
WINDOW 39 0 0 Left 0
SYMATTR InstName V3
SYMATTR Value PULSE(1 0.5 20m 10u 10u 30m)
SYMBOL g 704 224 R180
SYMATTR InstName G1
SYMATTR Value 1
TEXT 822 292 Left 2 !.tran 50m
