Version 4
SHEET 1 880 680
WIRE -1040 -720 -1072 -720
WIRE -960 -720 -1040 -720
WIRE -960 -688 -960 -720
WIRE -960 -592 -960 -624
WIRE -1472 -576 -1520 -576
WIRE -1360 -576 -1472 -576
WIRE -1072 -544 -1072 -720
WIRE -1520 -528 -1520 -576
WIRE -1104 -528 -1136 -528
WIRE -1008 -512 -1040 -512
WIRE -1104 -496 -1360 -496
WIRE -1136 -448 -1136 -528
WIRE -960 -448 -960 -496
WIRE -960 -448 -1136 -448
WIRE -1520 -416 -1520 -464
WIRE -560 -80 -624 -80
WIRE -400 -80 -480 -80
WIRE -240 -80 -400 -80
WIRE -32 -80 -240 -80
WIRE 80 -80 -32 -80
WIRE -240 -64 -240 -80
WIRE -400 48 -400 -80
WIRE -240 64 -240 16
WIRE -32 64 -96 64
WIRE 208 64 -32 64
WIRE 80 80 80 -80
WIRE -624 96 -624 -80
WIRE -16 128 -48 128
WIRE 16 128 -16 128
WIRE 208 144 208 64
WIRE 208 144 144 144
WIRE 224 144 208 144
WIRE 336 144 304 144
WIRE -240 160 -240 64
WIRE -16 160 -240 160
WIRE 16 160 -16 160
WIRE -240 176 -240 160
WIRE 336 192 336 144
WIRE -48 224 -48 128
WIRE 16 224 -48 224
WIRE 48 288 48 272
WIRE 80 288 48 288
WIRE 112 288 112 272
WIRE 112 288 80 288
WIRE -624 304 -624 176
WIRE -400 304 -400 112
WIRE -240 304 -240 256
WIRE 80 304 80 288
WIRE 336 304 336 256
FLAG 80 304 0
FLAG 336 304 0
FLAG -16 128 Vref
FLAG -32 64 Out
FLAG -32 -80 Vsup
FLAG -16 160 Vfb
FLAG -240 304 0
FLAG -624 304 0
FLAG -400 304 0
FLAG -624 -80 HVDC
FLAG -1520 -416 0
FLAG -1360 -416 0
FLAG -1472 -576 Vdclink
FLAG -960 -368 0
FLAG -1072 -480 0
FLAG -1040 -720 12V
SYMBOL Comparators\\LTC1440 80 80 R0
WINDOW 3 -456 382 Left 2
SYMATTR InstName U1
SYMBOL LED 320 192 R0
WINDOW 3 -589 278 Left 2
SYMATTR InstName D1
SYMATTR Value LUW-W5AP
SYMATTR Description Diode
SYMATTR Type diode
SYMBOL res 320 128 R90
WINDOW 0 0 56 VBottom 2
WINDOW 3 32 56 VTop 2
SYMATTR InstName R1
SYMATTR Value 470
SYMBOL schottky -96 48 R90
WINDOW 0 0 32 VBottom 2
WINDOW 3 400 348 VTop 2
SYMATTR InstName D2
SYMATTR Value 1N5817
SYMATTR Description Diode
SYMATTR Type diode
SYMBOL res -144 48 R90
WINDOW 0 0 56 VBottom 2
WINDOW 3 32 56 VTop 2
SYMATTR InstName R2
SYMATTR Value 560k
SYMBOL res -224 32 R180
WINDOW 0 36 76 Left 2
WINDOW 3 36 40 Left 2
SYMATTR InstName R3
SYMATTR Value 560k
SYMBOL res -224 272 R180
WINDOW 0 36 76 Left 2
WINDOW 3 36 40 Left 2
SYMATTR InstName R4
SYMATTR Value 330k
SYMBOL res -464 -96 R90
WINDOW 0 0 56 VBottom 2
WINDOW 3 32 56 VTop 2
SYMATTR InstName R5
SYMATTR Value 2820k
SYMBOL voltage -624 80 R0
WINDOW 123 0 0 Left 0
WINDOW 39 0 0 Left 0
SYMATTR InstName V1
SYMATTR Value 1000
SYMBOL cap -416 48 R0
SYMATTR InstName C1
SYMATTR Value 10µ
SYMBOL cap -1536 -528 R0
SYMATTR InstName Cdclink
SYMATTR Value 12mF
SYMBOL res -1376 -592 R0
SYMATTR InstName R6
SYMATTR Value 1Meg
SYMBOL res -1376 -512 R0
SYMATTR InstName R7
SYMATTR Value 1k
SYMBOL OpAmps\\UniversalOpAmp -1072 -512 R0
WINDOW 0 540 32 Left 2
SYMATTR InstName U2
SYMBOL res -976 -464 R0
SYMATTR InstName R8
SYMATTR Value 1
SYMBOL nmos -1008 -592 R0
WINDOW 3 459 145 Left 2
SYMATTR InstName M1
SYMBOL LED -976 -688 R0
WINDOW 0 87 29 Left 2
WINDOW 3 412 281 Left 2
SYMATTR InstName Ruban
SYMATTR Value LUW-W5AP
SYMATTR Description Diode
SYMATTR Type diode
TEXT -576 -24 Left 2 ;6x 470k\n200V/chip
TEXT -512 466 Left 2 !.tran 1
TEXT -160 -64 Left 2 ;Oscillates wrt C1/R1\nMax 4.3V Min 2.3V
TEXT -48 208 Left 2 ;1.2V
TEXT 160 216 Left 2 ;8mA pk\n10ms ON time\nFrequency proportionnal to DClink V
TEXT -944 -472 Left 2 ;Courant constant
TEXT -1312 -624 Left 2 ;Consigne courant\nprop. à Vdclink
