Version 4
SHEET 1 2224 680
WIRE 368 -352 368 -368
WIRE 1088 -352 1072 -352
WIRE 1152 -352 1088 -352
WIRE 1296 -352 1232 -352
WIRE 1360 -352 1296 -352
WIRE 1584 -352 1360 -352
WIRE 1680 -352 1584 -352
WIRE 336 -336 240 -336
WIRE 736 -336 656 -336
WIRE 480 -320 400 -320
WIRE 592 -320 480 -320
WIRE 336 -304 288 -304
WIRE 736 -304 656 -304
WIRE 32 -272 32 -304
WIRE 288 -272 288 -304
WIRE 368 -272 368 -288
WIRE 288 -240 288 -272
WIRE 1296 -224 1296 -352
WIRE 1680 -224 1680 -352
WIRE 1248 -208 1184 -208
WIRE 1824 -208 1728 -208
WIRE 352 -144 352 -160
WIRE 208 -128 32 -128
WIRE 320 -128 208 -128
WIRE 720 -128 640 -128
WIRE 1296 -128 1296 -144
WIRE 1392 -128 1296 -128
WIRE 1440 -128 1392 -128
WIRE 1584 -128 1520 -128
WIRE 1680 -128 1680 -144
WIRE 1680 -128 1584 -128
WIRE 464 -112 384 -112
WIRE 576 -112 464 -112
WIRE 1296 -112 1296 -128
WIRE 1680 -112 1680 -128
WIRE 32 -96 32 -128
WIRE 320 -96 272 -96
WIRE 720 -96 640 -96
WIRE 1248 -96 1184 -96
WIRE 1824 -96 1728 -96
WIRE 272 -64 272 -96
WIRE 352 -64 352 -80
WIRE 272 -32 272 -64
FLAG 32 -16 0
FLAG 208 -128 PWM
FLAG 720 -128 PWM1H
FLAG 720 -96 PWM1L
FLAG 272 16 0
FLAG 352 -64 0
FLAG 352 -160 COM
FLAG 32 -192 0
FLAG 32 -304 COM
FLAG 464 -112 PWM1
FLAG 240 -336 PWM
FLAG 736 -336 PWM2H
FLAG 736 -304 PWM2L
FLAG 288 -192 0
FLAG 368 -272 0
FLAG 368 -368 COM
FLAG 480 -320 PWM2
FLAG 1248 -48 0
FLAG 1248 -160 0
FLAG 1296 -32 0
FLAG 1584 -352 Vbus
FLAG 1072 -272 0
FLAG 1184 -208 PWM1H
FLAG 1184 -96 PWM1L
FLAG 1680 -32 0
FLAG 1728 -48 0
FLAG 1728 -160 0
FLAG 1824 -208 PWM2H
FLAG 1824 -96 PWM2L
FLAG 1360 -288 0
FLAG 1088 -352 Vdc
FLAG 1392 -128 PH1
FLAG 1584 -128 PH2
SYMBOL voltage 32 -112 R0
WINDOW 3 24 96 Invisible 2
WINDOW 123 0 0 Left 0
WINDOW 39 0 0 Left 0
SYMATTR InstName V1
SYMATTR Value PULSE(0 {VCC} 0 {0.5/Fpwm} {0.5/Fpwm} 0 {1/Fpwm})
SYMBOL Digital\\buf 576 -176 R0
SYMATTR InstName A1
SYMBOL Comparators\\LT1720 352 -176 R0
SYMATTR InstName U1
SYMBOL voltage 272 -80 R0
WINDOW 3 32 53 Left 2
WINDOW 123 0 0 Left 0
WINDOW 39 0 0 Left 0
SYMATTR InstName V2
SYMATTR Value {Ph1Duty*VCC}
SYMBOL voltage 32 -288 R0
WINDOW 123 0 0 Left 0
WINDOW 39 0 0 Left 0
SYMATTR InstName V3
SYMATTR Value {VCC}
SYMBOL Digital\\buf 592 -384 R0
SYMATTR InstName A2
SYMBOL Comparators\\LT1720 368 -384 R0
SYMATTR InstName U2
SYMBOL voltage 288 -288 R0
WINDOW 3 24 96 Invisible 2
WINDOW 123 0 0 Left 0
WINDOW 39 0 0 Left 0
SYMATTR InstName V4
SYMATTR Value SINE({VCC/2} {Ph2Amp*VCC} {Ph2Freq} 0 0 90)
SYMBOL sw 1296 -128 M180
WINDOW 0 24 85 Left 2
WINDOW 3 11 113 Left 2
SYMATTR InstName S1
SYMATTR Value MYSW
SYMBOL ind 1424 -112 R270
WINDOW 0 32 56 VTop 2
WINDOW 3 5 56 VBottom 2
SYMATTR InstName L1
SYMATTR Value {L}
SYMATTR SpiceLine Rser=5m
SYMBOL voltage 1072 -368 R0
WINDOW 0 -79 37 Left 2
WINDOW 3 -133 64 Left 2
WINDOW 123 0 0 Left 0
SYMATTR InstName V5
SYMATTR Value {Vbus}
SYMATTR SpiceLine Rser=1m
SYMBOL sw 1296 -16 M180
WINDOW 0 40 41 Left 2
WINDOW 3 36 64 Left 2
SYMATTR InstName S2
SYMATTR Value MYSW
SYMBOL sw 1680 -16 R180
WINDOW 0 42 41 Left 2
WINDOW 3 38 67 Left 2
SYMATTR InstName S3
SYMATTR Value MYSW
SYMBOL sw 1680 -128 R180
WINDOW 0 34 86 Left 2
WINDOW 3 1 110 Left 2
SYMATTR InstName S4
SYMATTR Value MYSW
SYMBOL ind 1136 -336 R270
WINDOW 0 32 56 VTop 2
WINDOW 3 5 56 VBottom 2
SYMATTR InstName L2
SYMATTR Value 100µ
SYMATTR SpiceLine Rser=10m
SYMBOL cap 1344 -352 R0
WINDOW 0 42 19 Left 2
WINDOW 3 33 48 Left 2
SYMATTR InstName C1
SYMATTR Value 3m
SYMATTR SpiceLine Rser=1m
TEXT 1086 56 Left 2 !.tran {5/Ph2Freq}
TEXT 1088 88 Left 2 !.param Fpwm=10k Ph1Duty=0.5 VCC=5 Ph2Amp=0.05 Ph2Freq=100 L=100µ Vbus=800
TEXT 1088 120 Left 2 !.model MYSW SW(Ron=2m Roff=10Meg Vt=.5 Vh=0.1)
TEXT 312 8 Left 2 ;Voltage mode: fixed duty cycle
TEXT 328 -224 Left 2 ;Current: sine modulation
TEXT -48 16 Left 2 ;Triangle PWM gen
