Version 4
SHEET 1 1748 680
WIRE 224 -208 224 -272
WIRE 448 -208 448 -272
WIRE 752 -208 752 -272
WIRE 1056 -208 1056 -272
WIRE 448 -96 448 -128
WIRE 528 -96 448 -96
WIRE 752 -16 752 -128
WIRE 832 -16 752 -16
WIRE 1520 0 1424 0
WIRE 1056 48 1056 -128
WIRE 1136 48 1056 48
WIRE 1424 48 1424 0
WIRE 1424 96 1424 48
WIRE 1520 96 1520 0
WIRE 224 112 224 -128
WIRE 224 112 144 112
WIRE 224 144 224 112
WIRE 528 144 528 112
WIRE 832 144 832 112
WIRE 1136 144 1136 112
WIRE 1344 176 1264 176
WIRE 1376 176 1344 176
WIRE 144 224 144 112
WIRE 176 224 144 224
WIRE 448 224 448 -96
WIRE 480 224 448 224
WIRE 752 224 752 -16
WIRE 784 224 752 224
WIRE 1056 224 1056 48
WIRE 1088 224 1056 224
WIRE 1424 256 1424 192
WIRE 1424 256 1264 256
WIRE 1520 256 1520 176
WIRE 1520 256 1424 256
WIRE 224 288 224 240
WIRE 528 288 528 240
WIRE 832 288 832 240
WIRE 1136 288 1136 240
FLAG 144 224 Vmeas
IOPIN 144 224 In
FLAG 448 224 Vmeas
IOPIN 448 224 In
FLAG 752 224 Vmeas
IOPIN 752 224 In
FLAG 1056 224 Vmeas
IOPIN 1056 224 In
FLAG 1344 176 Vmeas
IOPIN 1344 176 In
FLAG 1424 48 Imeas
IOPIN 1424 48 In
SYMBOL nmos 176 144 R0
WINDOW 0 36 296 Left 2
WINDOW 3 15 248 Left 2
SYMATTR InstName M1
SYMBOL current 224 -208 R0
WINDOW 0 -16 677 Left 2
WINDOW 3 30 678 Left 2
SYMATTR InstName I1
SYMBOL nmos 480 144 R0
WINDOW 0 37 421 Left 2
WINDOW 3 15 248 Left 2
SYMATTR InstName M2
SYMBOL current 448 -208 R0
WINDOW 0 79 745 Left 2
WINDOW 3 87 728 Left 2
SYMATTR InstName I2
SYMBOL diode 512 48 R0
WINDOW 0 4 419 Left 2
WINDOW 3 9 431 Left 2
SYMATTR InstName D1
SYMBOL diode 512 -16 R0
WINDOW 0 8 466 Left 2
WINDOW 3 17 515 Left 2
SYMATTR InstName D2
SYMBOL res 512 -112 R0
WINDOW 0 12 533 Left 2
WINDOW 3 35 55 Left 2
SYMATTR InstName R1
SYMATTR Value 100
SYMBOL nmos 784 144 R0
WINDOW 0 37 421 Left 2
WINDOW 3 15 248 Left 2
SYMATTR InstName M3
SYMBOL current 752 -208 R0
WINDOW 0 79 745 Left 2
WINDOW 3 87 728 Left 2
SYMATTR InstName I3
SYMBOL diode 816 48 R0
WINDOW 0 4 419 Left 2
WINDOW 3 9 431 Left 2
SYMATTR InstName D3
SYMBOL diode 816 -16 R0
WINDOW 0 8 466 Left 2
WINDOW 3 17 515 Left 2
SYMATTR InstName D4
SYMBOL nmos 1088 144 R0
WINDOW 0 37 421 Left 2
WINDOW 3 15 248 Left 2
SYMATTR InstName M4
SYMBOL current 1056 -208 R0
WINDOW 0 79 745 Left 2
WINDOW 3 87 728 Left 2
SYMATTR InstName I4
SYMBOL diode 1120 48 R0
WINDOW 0 4 419 Left 2
WINDOW 3 9 431 Left 2
SYMATTR InstName D5
SYMBOL nmos 1376 96 R0
WINDOW 0 37 421 Left 2
WINDOW 3 11 405 Left 2
SYMATTR InstName M5
SYMBOL voltage 1264 160 R0
WINDOW 0 151 306 Left 2
WINDOW 3 159 286 Left 2
SYMATTR InstName V1
SYMBOL voltage 1520 80 R0
WINDOW 0 -110 339 Left 2
WINDOW 3 37 56 Left 2
WINDOW 123 0 0 Left 0
WINDOW 39 0 0 Left 0
SYMATTR InstName V2
SYMATTR Value 15
TEXT 160 312 Left 2 ;Config 1
TEXT 464 312 Left 2 ;Config 2
TEXT 768 312 Left 2 ;Config 3
TEXT 1072 312 Left 2 ;Config 4
TEXT 1360 312 Left 2 ;Config 5
