Version 4
SHEET 1 880 680
WIRE -48 112 -64 112
WIRE 16 112 -48 112
WIRE 192 112 96 112
WIRE 240 112 192 112
WIRE 272 112 240 112
WIRE 352 112 272 112
WIRE -64 128 -64 112
WIRE 192 128 192 112
WIRE 272 144 272 112
WIRE 64 208 -64 208
WIRE 192 208 64 208
WIRE 272 208 192 208
WIRE 352 208 352 192
WIRE 352 208 272 208
WIRE 64 224 64 208
FLAG 64 224 0
FLAG 240 112 Vgate
FLAG -48 112 VDC
SYMBOL res 112 96 R90
WINDOW 0 -31 53 VBottom 2
WINDOW 3 -31 53 VTop 2
SYMATTR InstName R1
SYMATTR Value {6*470000}
SYMBOL res 208 224 R180
WINDOW 0 36 76 Left 2
WINDOW 3 36 40 Left 2
SYMATTR InstName R2
SYMATTR Value {Rbot}
SYMBOL zener 288 208 R180
WINDOW 0 24 64 Left 2
WINDOW 3 -114 -31 Left 2
SYMATTR InstName D1
SYMATTR Value BZX84C8V2L
SYMATTR Description Diode
SYMATTR Type diode
SYMBOL voltage -64 112 R0
WINDOW 0 -69 30 Left 2
WINDOW 3 -147 68 Left 2
WINDOW 123 0 0 Left 0
WINDOW 39 0 0 Left 0
SYMATTR InstName V1
SYMATTR Value PWL(0 0 100m 100)
SYMBOL current 352 112 R0
WINDOW 123 0 0 Left 0
WINDOW 39 0 0 Left 0
SYMATTR InstName I1
SYMATTR Value {Ileak}
TEXT -98 284 Left 2 !.tran 1
TEXT 24 296 Left 2 !.step param Rbot 100k 1Meg 10k
TEXT 40 352 Left 2 !.param Ileak=100n Rbot=330k
TEXT 48 392 Left 2 !.meas TRAN Vth FIND V(VDC) WHEN V(Vgate)=3.2
